17
Coordinates from ORCA-job neb_initial_path E   0.000000000000
  C      -2.243684     -0.920946      0.118972
  H      -1.843410     -1.509957     -0.698278
  H      -2.721556     -0.019114     -0.259657
  H      -1.499835     -0.676080      0.867111
  N      -3.321148     -1.722935      0.770391
  O      -3.467535     -1.618813      1.977876
  O      -4.018872     -2.423536      0.053225
  C       3.000251      0.492893     -0.774397
  O       4.191995      0.610762     -1.128009
  O       2.026644      0.127771     -1.479504
  C       2.786786      0.876865      0.701891
  Cl      1.151097      0.508439      1.397665
  H       2.934587      1.948253      0.823996
  H       3.503414      0.345525      1.320953
  H      -0.564956      1.676989     -0.650312
  O      -0.385574      1.394661     -1.555531
  H       0.471796      0.909222     -1.486392
17
Coordinates from ORCA-job neb_initial_path E   0.000000000000
  C      -2.313002     -0.866918      0.047542
  H      -2.093791     -1.528316     -0.779705
  H      -2.705263      0.205560     -0.398480
  H      -1.473689     -0.608979      0.676066
  N      -3.291615     -1.437565      0.982660
  O      -2.952402     -1.700403      2.141891
  O      -4.177360     -2.108767      0.452644
  C       3.024866      0.744611     -0.691126
  O       4.166739      1.182190     -0.916803
  O       2.187449      0.323207     -1.540198
  C       2.688872      0.738700      0.802844
  Cl      1.452822     -0.481160      1.231950
  H       2.391970      1.727144      1.140748
  H       3.535941      0.394396      1.389323
  H      -0.696533      1.644740     -1.187518
  O      -0.366389      1.019574     -1.843630
  H       0.621385      0.751986     -1.508207
17
Coordinates from ORCA-job neb_initial_path E   0.000000000000
  C      -2.357518     -0.884421      0.011083
  H      -2.548789     -1.510296     -0.851118
  H      -2.412447      0.399719     -0.432003
  H      -1.343587     -0.970232      0.367008
  N      -3.138575     -1.194408      1.191337
  O      -2.584680     -1.691612      2.195344
  O      -4.275948     -1.619118      0.930251
  C       2.973266      0.983939     -0.534956
  O       4.052374      1.587059     -0.598132
  O       2.253102      0.664908     -1.535948
  C       2.532491      0.603150      0.884151
  Cl      1.872180     -1.087057      0.822501
  H       1.960321      1.423875      1.309572
  H       3.392635      0.435819      1.528103
  H      -0.806585      1.441344     -1.837758
  O      -0.301672      0.634172     -1.983761
  H       0.733433      0.783158     -1.465673
17
Coordinates from ORCA-job neb_initial_path E   0.000000000000
  C      -2.369526     -0.965398     -0.062687
  H      -3.136430     -1.224673     -0.784136
  H      -1.947905      0.383263     -0.544651
  H      -1.494204     -1.591722     -0.160505
  N      -2.803718     -0.980028      1.293187
  O      -2.181888     -1.701282      2.116948
  O      -4.049371     -1.019191      1.454179
  C       2.864197      1.150762     -0.375749
  O       3.881042      1.843803     -0.307343
  O       2.199479      0.969612     -1.456743
  C       2.378093      0.507398      0.926523
  Cl      2.059001     -1.242975      0.558276
  H       1.632985      1.154884      1.380594
  H       3.197062      0.412506      1.635231
  H      -0.781050      1.072314     -2.318360
  O      -0.225915      0.371650     -1.963585
  H       0.778147      0.859076     -1.391179
17
Coordinates from ORCA-job neb_initial_path E   0.000000000000
  C      -2.440305     -1.059617     -0.112761
  H      -3.416880     -0.849075     -0.528391
  H      -1.630705      0.108162     -0.885654
  H      -1.893808     -1.914161     -0.481137
  N      -2.426107     -0.976159      1.277829
  O      -1.989998     -1.939423      1.961423
  O      -3.221173     -0.176576      1.831344
  C       2.683064      1.294912     -0.217224
  O       3.669139      2.009369     -0.069347
  O       2.071684      1.204744     -1.349333
  C       2.203995      0.437143      0.950992
  Cl      2.167225     -1.288201      0.396542
  H       1.308888      0.883763      1.370703
  H       2.957012      0.417728      1.733549
  H      -0.674620      0.762557     -2.560708
  O      -0.154241      0.188950     -1.986703
  H       0.786830      0.895885     -1.331122
17
Coordinates from ORCA-job neb_initial_path E   0.000000000000
  C      -2.589602     -0.956856     -0.101930
  H      -3.295417     -0.203075     -0.410864
  H      -1.241179     -0.432586     -1.060053
  H      -2.526707     -1.945894     -0.526489
  N      -2.168415     -0.856783      1.195877
  O      -1.781496     -1.899776      1.797954
  O      -2.515261      0.152954      1.874935
  C       2.402214      1.459623     -0.053212
  O       3.306177      2.247635      0.177949
  O       1.773417      1.478739     -1.188362
  C       2.137419      0.319574      0.915547
  Cl      2.490267     -1.274655      0.149449
  H       1.123975      0.406604      1.282442
  H       2.792924      0.387726      1.778169
  H      -0.557105      0.259040     -2.667723
  O      -0.032421     -0.088365     -1.936972
  H       0.681209      0.946093     -1.226716
17
Coordinates from ORCA-job neb_initial_path E   0.000000000000
  C      -2.585442     -0.706078     -0.052513
  H      -3.060634      0.211457     -0.355948
  H      -1.075288     -0.657059     -1.191793
  H      -2.811207     -1.681547     -0.450599
  N      -1.933683     -0.676173      1.127262
  O      -1.538828     -1.763177      1.658573
  O      -1.856864      0.418039      1.773921
  C       1.973626      1.522791      0.156679
  O       2.749190      2.400525      0.489840
  O       1.372117      1.594794     -1.004012
  C       2.050540      0.181359      0.850313
  Cl      2.953169     -1.061519     -0.106739
  H       1.082153     -0.278577      0.968471
  H       2.500824      0.290562      1.830147
  H      -0.371666     -0.254831     -2.708214
  O      -0.011574     -0.395789     -1.824535
  H       0.563568      0.855220     -1.160853
17
Coordinates from ORCA-job neb_initial_path E   0.000000000000
  C      -2.474906     -0.431592      0.050371
  H      -2.837216      0.536976     -0.252685
  H      -0.944713     -0.643816     -1.334863
  H      -2.881527     -1.364891     -0.303004
  N      -1.609419     -0.478401      1.059732
  O      -1.185909     -1.601695      1.511689
  O      -1.153779      0.600599      1.582913
  C       1.589649      1.430568      0.295680
  O       1.961266      2.393867      0.930852
  O       0.966541      1.575233     -0.862423
  C       1.848029      0.012673      0.775845
  Cl      3.205022     -0.697900     -0.200612
  H       0.990181     -0.638981      0.654655
  H       2.176517      0.032271      1.808218
  H      -0.223111     -0.772569     -2.705029
  O      -0.059275     -0.662891     -1.761460
  H       0.632651      0.710549     -1.249879
