40
Coordinates from ORCA-job neb_initial_path E   0.000000000000
  C      -1.299757      2.242385     -1.230011
  C      -1.052588      0.946486     -1.666500
  C      -1.738904     -0.133173     -1.108981
  C      -2.681024      0.102073     -0.108116
  C      -2.928838      1.398565      0.328635
  C      -2.241062      2.471267     -0.231401
  H      -0.752214      3.069476     -1.663015
  H      -0.315533      0.767068     -2.439624
  H      -3.219739     -0.721620      0.338865
  H      -2.430748      3.479055      0.115635
  C      -1.440913     -1.525201     -1.620483
  C      -1.683049     -2.672222     -0.657327
  H      -1.412639     -3.617515     -1.128387
  H      -2.721092     -2.722821     -0.336775
  H      -1.050428     -2.529661      0.217725
  N      -2.306581     -1.744502     -2.873787
  O      -1.753660     -1.683576     -3.960138
  O      -3.498653     -1.948558     -2.721995
  N       0.510634      1.055749      1.683028
  C       0.712020     -0.391320      1.586127
  C       2.026580     -0.782925      2.253451
  C       3.195685     -0.014409      1.631736
  C       2.919549      1.491227      1.631887
  C       1.567654      1.794935      0.992595
  H       1.344984      2.862201      1.053013
  H       1.609332      1.532906     -0.078538
  H       3.707112      2.025334      1.093953
  H       2.916057      1.863648      2.661347
  H       2.180641     -1.860778      2.158093
  H       1.965202     -0.553810      3.322365
  H       0.740852     -0.720176      0.535379
  H      -0.426396     -1.560245     -2.009072
  H      -0.389621      1.297970      1.287025
  H      -0.130893     -0.894118      2.062965
  H       4.124472     -0.233241      2.164509
  H       3.336899     -0.350569      0.598700
  H      -3.656267      1.570126      1.111793
  H       1.902683     -0.339397     -1.641660
  H       2.356139     -1.756705     -1.315694
  O       2.014104     -1.213929     -2.037323
40
Coordinates from ORCA-job neb_initial_path E   0.000000000000
  C      -1.393411      2.318310     -1.277062
  C      -1.159205      1.012716     -1.701039
  C      -1.842082     -0.066782     -1.130938
  C      -2.797565      0.186137     -0.141408
  C      -3.035291      1.492570      0.284960
  C      -2.335130      2.559577     -0.277868
  H      -0.818849      3.139542     -1.686475
  H      -0.395248      0.825236     -2.443793
  H      -3.314121     -0.630802      0.343819
  H      -2.515816      3.570213      0.067358
  C      -1.505432     -1.472868     -1.573279
  C      -1.719796     -2.611023     -0.597485
  H      -1.441188     -3.567903     -1.040574
  H      -2.734756     -2.657030     -0.209734
  H      -1.053973     -2.471873      0.249572
  N      -2.406289     -1.747287     -2.791730
  O      -1.897378     -1.652992     -3.896423
  O      -3.577113     -2.020046     -2.587857
  N       0.646400      0.830816      1.491822
  C       0.934742     -0.586775      1.476368
  C       2.134842     -0.848866      2.366585
  C       3.267226      0.070938      1.913772
  C       2.844519      1.536796      1.797892
  C       1.647043      1.681916      0.870045
  H       1.319220      2.721582      0.815180
  H       1.909475      1.394910     -0.155760
  H       3.648255      2.157018      1.398281
  H       2.566960      1.936127      2.780046
  H       2.404268     -1.905734      2.318607
  H       1.834759     -0.617376      3.394761
  H       1.170351     -0.935801      0.469208
  H      -0.505865     -1.497764     -1.997735
  H      -0.224048      1.017920      1.038520
  H       0.101298     -1.142760      1.899495
  H       4.069367     -0.010924      2.650312
  H       3.631592     -0.272835      0.940118
  H      -3.757433      1.680089      1.070084
  H       1.979622     -0.367311     -2.014404
  H       2.441078     -1.782502     -1.762087
  O       1.878973     -1.265157     -2.351153
40
Coordinates from ORCA-job neb_initial_path E   0.000000000000
  C      -1.458772      2.382410     -1.295914
  C      -1.281581      1.074018     -1.751929
  C      -1.956825     -0.009286     -1.163637
  C      -2.869496      0.258477     -0.133762
  C      -3.081768      1.570001      0.292776
  C      -2.380023      2.630675     -0.278796
  H      -0.870780      3.198453     -1.697784
  H      -0.488573      0.876556     -2.461408
  H      -3.383404     -0.549746      0.368754
  H      -2.567640      3.646758      0.045962
  C      -1.574927     -1.429795     -1.536717
  C      -1.778459     -2.559906     -0.549756
  H      -1.479043     -3.523865     -0.963286
  H      -2.777974     -2.597118     -0.121110
  H      -1.112262     -2.408147      0.290760
  N      -2.494536     -1.748924     -2.730139
  O      -2.014941     -1.635193     -3.845680
  O      -3.647725     -2.062925     -2.487211
  N       0.789293      0.608114      1.293095
  C       1.199001     -0.769967      1.345324
  C       2.207901     -0.871345      2.476571
  C       3.278123      0.179778      2.192429
  C       2.735462      1.587847      1.933291
  C       1.752942      1.572766      0.771822
  H       1.334052      2.565186      0.599054
  H       2.237940      1.286364     -0.168124
  H       3.522958      2.291034      1.662418
  H       2.219241      1.976255      2.818949
  H       2.589793     -1.893416      2.519337
  H       1.676803     -0.656126      3.411471
  H       1.652538     -1.132853      0.425329
  H      -0.584433     -1.454301     -1.982190
  H       0.043085      0.694896      0.650202
  H       0.411393     -1.435933      1.675388
  H       3.918983      0.207776      3.075227
  H       3.858905     -0.140803      1.321703
  H      -3.818357      1.771680      1.060479
  H       1.961684     -0.399403     -2.319508
  H       2.491178     -1.791948     -2.190040
  O       1.740247     -1.308046     -2.553353
40
Coordinates from ORCA-job neb_initial_path E   0.000000000000
  C      -1.482947      2.435376     -1.275037
  C      -1.358731      1.127521     -1.748639
  C      -2.016672      0.041838     -1.141918
  C      -2.888958      0.326892     -0.086732
  C      -3.109214      1.642125      0.312020
  C      -2.406740      2.694394     -0.267289
  H      -0.902972      3.247865     -1.695769
  H      -0.589609      0.930232     -2.485182
  H      -3.434616     -0.468785      0.401190
  H      -2.605649      3.716526      0.029804
  C      -1.639704     -1.392885     -1.489250
  C      -1.814175     -2.491763     -0.459131
  H      -1.493970     -3.460892     -0.841653
  H      -2.815772     -2.535356     -0.032666
  H      -1.185938     -2.283792      0.399699
  N      -2.566138     -1.743228     -2.664736
  O      -2.110764     -1.621380     -3.790213
  O      -3.700860     -2.091158     -2.389599
  N       0.899936      0.401657      1.060036
  C       1.458792     -0.931706      1.212413
  C       2.205587     -0.880649      2.538539
  C       3.204985      0.268054      2.409470
  C       2.584901      1.610659      2.014635
  C       1.846644      1.481176      0.697182
  H       1.355313      2.413678      0.417666
  H       2.534725      1.246245     -0.128490
  H       3.336429      2.386213      1.862556
  H       1.875924      1.952491      2.775909
  H       2.686045     -1.846500      2.716344
  H       1.466474     -0.709520      3.328390
  H       2.146354     -1.242811      0.416596
  H      -0.665427     -1.437728     -1.971668
  H       0.448732      0.354984      0.177830
  H       0.810398     -1.786972      1.359133
  H       3.679345      0.371344      3.386196
  H       3.969435      0.000685      1.671454
  H      -3.866035      1.854112      1.056621
  H       1.850829     -0.485846     -2.443881
  H       2.609282     -1.690728     -2.648208
  O       1.684761     -1.402368     -2.683620
40
Coordinates from ORCA-job neb_initial_path E   0.000000000000
  C      -1.496682      2.446753     -1.287495
  C      -1.341269      1.135961     -1.746851
  C      -2.026847      0.066082     -1.138269
  C      -2.918804      0.347485     -0.098363
  C      -3.135433      1.664214      0.299162
  C      -2.429257      2.712272     -0.286265
  H      -0.909580      3.255010     -1.707069
  H      -0.535600      0.922322     -2.442512
  H      -3.467375     -0.446533      0.390170
  H      -2.621220      3.734257      0.016424
  C      -1.658490     -1.373147     -1.468596
  C      -1.816896     -2.468491     -0.433112
  H      -1.496642     -3.440491     -0.807533
  H      -2.821255     -2.518789     -0.014615
  H      -1.193098     -2.242274      0.425364
  N      -2.568356     -1.738403     -2.652953
  O      -2.110007     -1.615422     -3.777483
  O      -3.700136     -2.095985     -2.379031
  N       0.913220      0.346708      0.983760
  C       1.489420     -0.964638      1.244389
  C       2.207012     -0.875667      2.577933
  C       3.197654      0.281842      2.436541
  C       2.561287      1.606109      2.007217
  C       1.854629      1.448373      0.676578
  H       1.338419      2.358811      0.373520
  H       2.586690      1.239515     -0.121254
  H       3.307427      2.390263      1.867772
  H       1.825547      1.941658      2.744121
  H       2.691161     -1.835887      2.781574
  H       1.434388     -0.699398      3.331256
  H       2.257506     -1.281151      0.525034
  H      -0.685735     -1.401028     -1.950559
  H       0.595137      0.216074      0.044686
  H       0.852310     -1.833261      1.361628
  H       3.661244      0.396019      3.416781
  H       3.989363      0.021427      1.723555
  H      -3.885345      1.874615      1.051284
  H       1.910421     -1.681898     -2.122542
  H       2.521938     -0.787208     -3.015787
  O       1.623255     -1.106097     -2.828461
40
Coordinates from ORCA-job neb_initial_path E   0.000000000000
  C      -1.494770      2.497945     -1.257892
  C      -1.304298      1.178089     -1.659021
  C      -1.992833      0.119556     -1.052488
  C      -2.926183      0.417400     -0.059613
  C      -3.164528      1.738488      0.302253
  C      -2.452587      2.777638     -0.288264
  H      -0.917886      3.300709     -1.700761
  H      -0.525257      0.962537     -2.380598
  H      -3.497679     -0.369213      0.413983
  H      -2.652162      3.804680     -0.009576
  C      -1.650195     -1.319049     -1.391627
  C      -1.752746     -2.365843     -0.299478
  H      -1.449731     -3.348568     -0.659777
  H      -2.750595     -2.425818      0.132521
  H      -1.106349     -2.078212      0.526982
  N      -2.587118     -1.716715     -2.544288
  O      -2.171418     -1.586498     -3.685214
  O      -3.695629     -2.117879     -2.239965
  N       1.089971      0.114104      0.657161
  C       1.737915     -1.114634      1.104320
  C       2.139843     -0.914561      2.551282
  C       3.028705      0.330763      2.574331
  C       2.350961      1.576719      2.001391
  C       1.915331      1.326881      0.573032
  H       1.366849      2.171974      0.160511
  H       2.815062      1.213283     -0.058516
  H       3.028131      2.433506      1.981407
  H       1.462240      1.835176      2.582545
  H       2.664754     -1.812602      2.890691
  H       1.225796     -0.804449      3.139311
  H       2.658481     -1.344425      0.534456
  H      -0.692482     -1.357428     -1.904067
  H       0.993557     -0.069390     -0.330369
  H       1.195501     -2.056588      1.076067
  H       3.306681      0.500899      3.614852
  H       3.962473      0.149308      2.026941
  H      -3.929396      1.957468      1.036384
  H       2.113715     -1.892962     -2.481277
  H       2.136228     -0.514220     -3.084722
  O       1.521648     -1.198066     -2.792909
40
Coordinates from ORCA-job neb_initial_path E   0.000000000000
  C      -1.486545      2.554603     -1.220045
  C      -1.242120      1.227208     -1.552441
  C      -1.947779      0.184464     -0.951515
  C      -2.934913      0.493997     -0.018223
  C      -3.201250      1.819892      0.301194
  C      -2.478943      2.849980     -0.291956
  H      -0.913074      3.350539     -1.678549
  H      -0.464734      0.999769     -2.270027
  H      -3.515401     -0.290525      0.447878
  H      -2.691991      3.881439     -0.041497
  C      -1.617144     -1.251951     -1.290543
  C      -1.644881     -2.248444     -0.148421
  H      -1.366765     -3.242953     -0.497475
  H      -2.624309     -2.305396      0.322790
  H      -0.940744     -1.916138      0.613732
  N      -2.592057     -1.689745     -2.396666
  O      -2.240024     -1.539899     -3.556683
  O      -3.667622     -2.146091     -2.053116
  N       1.315891     -0.115449      0.371204
  C       2.005477     -1.240289      0.991457
  C       2.082335     -0.981129      2.484917
  C       2.787796      0.362155      2.682532
  C       2.093805      1.505868      1.939992
  C       1.986930      1.178296      0.461557
  H       1.435067      1.948997     -0.075532
  H       3.000087      1.156522      0.020483
  H       2.651466      2.440428      2.036595
  H       1.084995      1.657109      2.333409
  H       2.632871     -1.802691      2.951389
  H       1.070305     -0.973678      2.897928
  H       3.029019     -1.360673      0.588498
  H      -0.673941     -1.282797     -1.827659
  H       1.332833     -0.324222     -0.618934
  H       1.535955     -2.211133      0.831563
  H       2.826617      0.575020      3.752057
  H       3.828061      0.292816      2.340765
  H      -3.985316      2.047676      1.011931
  H       2.140903     -1.902908     -2.768006
  H       1.927544     -0.476621     -3.259907
  O       1.461598     -1.224047     -2.864674
40
Coordinates from ORCA-job neb_initial_path E   0.000000000000
  C      -1.484037      2.616929     -1.189096
  C      -1.187798      1.287908     -1.467548
  C      -1.915698      0.260337     -0.869786
  C      -2.954407      0.578761      0.004504
  C      -3.254444      1.908049      0.280492
  C      -2.519277      2.929647     -0.313688
  H      -0.904893      3.406104     -1.651581
  H      -0.378635      1.042837     -2.143247
  H      -3.532586     -0.206281      0.473396
  H      -2.751316      3.964097     -0.093535
  C      -1.558403     -1.174052     -1.188127
  C      -1.519890     -2.119907     -0.004725
  H      -1.252948     -3.126372     -0.328071
  H      -2.471588     -2.158627      0.520374
  H      -0.750850     -1.753610      0.673762
  N      -2.576534     -1.667625     -2.228228
  O      -2.304421     -1.484016     -3.404342
  O      -3.610186     -2.183907     -1.839188
  N       1.557809     -0.338311      0.132464
  C       2.269151     -1.337762      0.924123
  C       2.074413     -1.057700      2.411886
  C       2.520567      0.366401      2.756037
  C       1.848243      1.389245      1.835836
  C       2.055908      1.012711      0.371744
  H       1.517898      1.702150     -0.281558
  H       3.130741      1.101717      0.131464
  H       2.244970      2.390671      2.022474
  H       0.773234      1.418225      2.041861
  H       2.632727     -1.788009      3.003442
  H       1.014424     -1.178566      2.658287
  H       3.351543     -1.342576      0.702569
  H      -0.619492     -1.195010     -1.733138
  H       1.609308     -0.568057     -0.854410
  H       1.881414     -2.325682      0.665284
  H       2.304624      0.592734      3.803322
  H       3.607536      0.438558      2.633824
  H      -4.061174      2.145426      0.962447
  H       2.059644     -1.901617     -3.081158
  H       1.738589     -0.444023     -3.421870
  O       1.415834     -1.200797     -2.916296
