40
Coordinates from ORCA-job neb_NEB-CI_converged
  C   -1.50042053601841      2.45700323105478     -1.27929663368083
  C   -1.27860955946368      1.13634008829291     -1.65045217814442
  C   -1.98456701192395      0.09989615646867     -1.03671040701810
  C   -2.93434562826850      0.40644036301451     -0.06454816538923
  C   -3.16313746065249      1.72805332673850      0.30066553719310
  C   -2.44245310744958      2.75594575326680     -0.30081005142802
  H   -0.92982158098435      3.25062040779267     -1.74542222263731
  H   -0.53574311919653      0.90416707862037     -2.40311515009265
  H   -3.49175250126314     -0.38269531234664      0.42139161337835
  H   -2.61207491386397      3.78327051518206     -0.00384811925070
  C   -1.67210729193296     -1.32937355931057     -1.42495320781077
  C   -1.78817586164500     -2.36452600772314     -0.32176412075133
  H   -1.49582215234650     -3.34605923912677     -0.69540029137856
  H   -2.79912407105263     -2.42681479275534      0.07363379364235
  H   -1.11456117349637     -2.08642262546005      0.48720274409893
  N   -2.61544369700747     -1.71411462263531     -2.57581693316648
  O   -2.18884976420104     -1.59461716483778     -3.71344754157353
  O   -3.74107925479033     -2.09247073088316     -2.30253516937879
  N   1.02596560720362      0.13378217273586      0.63500087121350
  C   1.69515170594581     -1.07686955580731      1.11317438901877
  C   2.19875327405178     -0.86985256039384      2.53755259792255
  C   3.13995832680929      0.33571826537986      2.58603518872496
  C   2.45268309666601      1.57951699542264      2.01585302170378
  C   1.91258094519537      1.29954982058669      0.61628722179325
  H   1.34338191167071      2.15491177671338      0.24533489383009
  H   2.76493520904869      1.14854778489411     -0.06788029953593
  H   3.15193377513387      2.41879839921639      1.97560137980929
  H   1.62449009953839      1.87552045978537      2.66888552701835
  H   2.70840117045038     -1.77306326649868      2.88254354794092
  H   1.34332751965418     -0.70171673793515      3.20134559763690
  H   2.55047484076287     -1.35046136186967      0.47201103409366
  H   -0.69114992404373     -1.36447836057063     -1.89200839283408
  H   0.67744401911974     -0.02495186413327     -0.30190929500816
  H   0.98268203104356     -1.90238168497661      1.07236343868711
  H   3.48959514158054      0.51922411063587      3.60519935127693
  H   4.02501140290076      0.11003287926009      1.97905708607506
  H   -3.89938264171852      1.95441506748502      1.06114730183850
  H   2.00760637599449     -1.88465560032007     -2.30299350480418
  H   2.23636117103034     -0.57598921805918     -3.07580055311985
  O   1.54788362751873     -1.19024038690337     -2.79157389989345
