38
Coordinates from ORCA-job /home/rudenko/mop_saddle_orca_4_serv/for_orca/mcl-morpholine/orca/orca_end/end
  C   3.36755280389787      2.40238707412790     -0.77777711976927
  C   3.17350823686541      1.10126414553624     -0.33552461827724
  C   2.41258508859021      0.18407200776758     -1.08032557693196
  C   1.83289797644645      0.63638395024217     -2.27781180321299
  C   2.03283488701529      1.94045419185186     -2.69227815200003
  C   2.80077856273735      2.84323760656082     -1.96866316794931
  H   3.97617718953127      3.08198733052409     -0.19497429195339
  H   3.63860860207712      0.78460048286548      0.58780734634886
  H   1.24278877924553     -0.03597449743090     -2.87809746347245
  Cl  1.30086845685974      2.46518336438356     -4.20090381631371
  H   2.95431262269798      3.85157273605126     -2.32599124072723
  C   2.22707869357137     -1.17564927124369     -0.56914840767762
  C   2.12460392765884     -1.44337986734060      0.90092133625798
  H   1.24111674591758     -2.04696566609360      1.11820687060538
  H   2.04972006238983     -0.51112768534849      1.45629999652636
  H   2.98769462521923     -2.00363271038261      1.27623512828620
  N   2.17288610332373     -2.22991786836346     -1.37220217099203
  O   2.01420597019574     -3.41130102336103     -0.90439123391582
  O   2.32603931870783     -2.11382363652366     -2.67502117594980
  N   4.85002461600920     -1.31238197922474     -2.95577609779436
  C   5.53491508207769     -2.37439323687194     -3.74836036215528
  C   6.97873536803486     -1.98277625595848     -3.99922626936878
  O   7.06177749230195     -0.71680664912509     -4.64718546135040
  C   6.47560797507372      0.30730589563063     -3.84854497637892
  C   5.00767433626968      0.03073751697054     -3.58293693669214
  H   4.59133562332915      0.77275416032257     -2.90643396013148
  H   4.43560691114195      0.02784860783730     -4.51006011662915
  H   6.57939370246543      1.24159733987164     -4.39776223898810
  H   7.01998934997388      0.39337941829372     -2.89980285592144
  H   7.45068616635512     -2.71159072101321     -4.65608333084410
  H   7.53082479060584     -1.95087205444581     -3.05157954178442
  H   4.99165328273807     -2.47887523642101     -4.68714210899851
  H   5.30969854162320     -1.27204997249384      0.37818281768623
  H   3.81559955833344     -1.56971156152648     -2.86957363461238
  H   5.46924797520555     -3.30633469984239     -3.18916574148856
  H   6.42576510225071     -2.16609436422053     -0.17509620345777
  H   5.23632859473922     -1.29541046578083     -1.99361646741221
  O   5.97770564852257     -1.32148588582492     -0.31826785255994
