27

C          0.15133        1.25816        0.58990
C          0.49656        1.03336       -0.73896
C          0.31536       -0.22534       -1.33757
C         -0.20049       -1.26511       -0.55438
C         -0.52253       -1.03024        0.78582
C         -0.36266        0.22898        1.37146
H          0.28270        2.25214        1.02575
H          0.89355        1.86479       -1.33093
H         -0.37506       -2.25553       -0.98775
H         -0.62984        0.40235        2.41792
N         -1.03816       -2.11466        1.58420
O         -1.36169       -1.90394        2.74724
O         -1.13806       -3.23203        1.09044
C          0.61286       -0.43932       -2.74836
H          2.60591       -0.21740       -2.83394
C          0.65444       -1.84058       -3.27304
H          1.03437       -1.90389       -4.30301
H         -0.36402       -2.26855       -3.30380
H          1.26282       -2.51089       -2.65287
N          0.22756        0.51566       -3.64803
O          0.39763        0.35120       -4.87456
O         -0.25514        1.60689       -3.27841
O          6.62776        1.37579       -2.92278
H          6.08101        0.66867       -2.89281
H          3.86192        0.37948       -2.02732
H          3.74838        0.60524       -3.60750
O          3.64019       -0.12177       -2.89472
