23

C          0.73968       -0.77747        0.02337
H          3.05113       -1.07398        0.13724
N          0.71630       -1.40868        1.18471
O          0.68229       -2.67778        1.26558
O          0.75259       -0.78026        2.29021
C          6.69405       -3.20487        0.48301
O          5.98075       -2.35884        1.24215
O          6.29534       -3.54008       -0.61376
C          7.94153       -3.63471        1.15104
H          8.69389       -3.98805        0.42554
H          7.76147       -4.46767        1.85541
H          8.41021       -2.82609        1.73902
C          0.73208        0.70995       -0.03037
H          1.17497        1.16919        0.86587
H         -0.29249        1.10206       -0.11676
H          1.29277        1.08713       -0.89744
C          0.66983       -1.53445       -1.25643
H         -0.35182       -1.53421       -1.66545
H          0.97073       -2.58690       -1.14487
H          1.32086       -1.09028       -2.02342
H          5.16358       -1.94964        0.79037
O          4.03592       -0.99613        0.01181
H          4.23846       -0.10552        0.33956
