38
XYZ file generated by gabedit : coordinates in Angstrom
C          0.8899900000          3.3041100000          1.9457800000
C          1.3999400000          2.0094400000          1.8632900000
C          0.5399900000          0.9133500000          1.7730000000
C         -0.8428600000          1.1083200000          1.7476800000
C         -1.3177500000          2.4085100000          1.8268000000
C         -0.4874800000          3.5168200000          1.9291000000
H          1.5727900000          4.1543200000          2.0221900000
H          2.4845400000          1.8537500000          1.8713400000
H         -1.5234000000          0.2562300000          1.6615400000
Cl         -3.0171000000          2.6546300000          1.7937000000
H         -0.8886500000          4.5306400000          1.9933300000
C          1.1298300000         -0.4701700000          1.7207600000
C          0.5144400000         -1.4076900000          2.7515400000
H          1.0107600000         -2.3895300000          2.7700600000
H         -0.5568700000         -1.5903100000          2.5797700000
H          0.6038100000         -0.9831600000          3.7642700000
N          0.8967200000         -1.0375700000          0.3499200000
O          1.8680100000         -1.2948500000         -0.3413400000
O         -0.2467300000         -1.2208700000         -0.0341100000
N          5.9132400000         -0.5158440000          2.3453730000
C          6.6180130000         -1.8205020000          2.2989130000
C          7.5839970000         -1.9027780000          3.4917370000
O          8.4887450000         -0.8106960000          3.4829440000
C          7.8304700000          0.4453940000          3.5292340000
C          6.8964030000          0.5954150000          2.3184090000
H          6.3448540000          1.5594890000          2.3701400000
H          7.4900350000          0.6196780000          1.3796710000
H          8.6638610000          1.1698760000          3.5056820000
H          7.2831460000          0.5340460000          4.4849950000
H          8.2491080000         -2.7824550000          3.4273090000
H          7.0470020000         -1.9139280000          4.4568620000
H          7.1703430000         -1.9748400000          1.3474760000
H          2.2593300000         -0.4199900000          1.8789700000
H          5.2725990000         -0.4359740000          1.5483880000
H          5.8575650000         -2.6301590000          2.3636710000
H          3.2375900000         -1.0503350000          2.4752130000
H          4.1494450000         -0.0456170000          2.2895150000
O          3.4326070000         -0.4963920000          2.1910280000
 
