10
Coordinates from ORCA-job neb_NEB-CI_converged
  C   -0.50936498729551      0.12557849784234     -0.29778371673893
  H   -0.42282108577258     -0.51713897819310     -1.16487496469332
  H   -0.20969947159796      1.14413076862686     -0.53191874573232
  H   0.05406941576680     -0.24478119354794      0.55035508048619
  N   -1.94587188741868      0.19516316348544      0.09668703858930
  O   -2.20727488056305      0.58615344024874      1.22277771925706
  O   -2.78799765540416     -0.12277966792210     -0.72721268151397
  H   2.84573004770162     -0.72095138427693     -0.40793526624400
  O   2.64241193659352     -0.69345630908204      0.53562334067454
  H   2.54081856798998      0.24808166281874      0.72428219591544
