10
Properties=species:S:1:pos:R:3 pbc="F F F"
C        0.43972596      -0.77614932       0.55697501
H        0.72309591      -0.16304548      -0.28210046
H        0.32387304      -0.26879111       1.49824140
H        2.29309190      -0.99325252       0.78575314
N        0.00831858      -2.02344040       0.38681763
O       -0.43322733      -2.70038499       1.34923824
O        0.05113698      -2.58487741      -0.73668613
H        3.70744905      -1.69859534       1.11878033
O        2.95342176      -1.18192759       1.58223166
H        3.40428057      -0.27109504       1.70229988
