41

C          0.87151       -0.17489        0.77511
C          0.84386       -0.97882       -0.36189
C         -0.33829       -1.13806       -1.09715
C         -1.49816       -0.47622       -0.68783
C         -1.45574        0.31949        0.46122
C         -0.27963        0.48005        1.20116
H          1.80249       -0.05826        1.33493
H          1.75486       -1.48298       -0.68488
H         -2.42459       -0.58881       -1.26140
H         -0.25859        1.10728        2.09758
N         -2.66053        0.97957        0.90173
O         -2.63996        1.63695        1.93489
O         -3.68297        0.86574        0.23763
C         -0.37085       -2.02026       -2.25675
C         -0.23361       -3.48694       -2.03606
H          0.44800       -3.95794       -2.76002
H         -1.20291       -4.00187       -2.14087
H          0.13650       -3.71682       -1.02819
N         -0.63141       -1.54905       -3.47620
O         -0.72286       -2.31681       -4.47323
O         -0.74099       -0.31143       -3.69235
H          1.74230       -1.91645       -2.96236
C          3.50956       -5.43523        0.55260
C          4.50677       -6.33734       -0.03652
C          5.43941       -5.63669       -1.03304
C          4.64837       -4.71942       -1.96088
N          3.94464       -3.66509       -1.13625
C          2.93762       -4.30761       -0.20467
H          3.11781       -5.64370        1.53384
H          5.11222       -6.83820        0.75198
H          3.97447       -7.18084       -0.54580
H          5.99967       -6.38623       -1.62971
H          6.22120       -5.06648       -0.48966
H          5.32061       -4.20937       -2.69137
H          3.89705       -5.29078       -2.55348
H          4.64914       -3.13429       -0.57831
H          2.54183       -3.51500        0.48125
H          2.06391       -4.67697       -0.81052
H          3.45798       -2.97233       -1.77462
H          3.04827       -1.08447       -2.96841
O          2.72041       -1.99680       -2.93922
