27
Properties=species:S:1:pos:R:3 pbc="F F F"
C        0.85144000      -0.54122000      -0.86714000
H        1.00220000      -0.78842000      -1.92766000
N        0.73359000      -2.94168000      -0.43716000
O        0.60584000      -3.17474000      -1.67915000
O        0.66066000      -3.95050000       0.33538000
H        1.78652000      -0.61245000       1.67489000
C        0.97413000      -1.72559000       0.02784000
H        3.06739000      -2.07182000      -0.77617000
H       -0.15174000      -0.09074000      -0.78615000
C        1.16751000      -1.50033000       1.48684000
H        0.20992000      -1.34285000       2.00401000
C        4.66666000      -2.47575000      -4.17494000
C        4.95710000      -3.01389000      -5.42514000
C        5.04596000      -4.39805000      -5.57433000
C        4.83077000      -5.21909000      -4.46710000
C        4.54177000      -4.64460000      -3.23258000
N        4.46985000      -3.29222000      -3.10594000
H        5.11180000      -2.34671000      -6.27900000
H        5.27592000      -4.83598000      -6.55202000
H        4.88621000      -6.30896000      -4.55904000
H        1.57447000       0.24398000      -0.61214000
H        1.66175000      -2.35257000       1.97643000
H        4.36267000      -5.25396000      -2.32769000
H        4.58436000      -1.38780000      -4.00750000
H        4.24103000      -2.71660000      -0.06311000
H        4.27265000      -2.86165000      -2.15238000
O        4.04546000      -2.12565000      -0.83098000
