22
Properties=species:S:1:pos:R:3 pbc="F F F"
C        1.12628519       0.77662824      -1.46311305
C        1.15124503      -0.59418878      -1.20262182
C       -0.05361180      -1.26132231      -1.04205360
C       -1.27947754      -0.61070585      -1.11109174
C       -1.28911123       0.76083348      -1.36182713
C       -0.08995708       1.45071373      -1.54121943
H        2.06347010       1.31847201      -1.60115776
C        2.48426943      -1.28760890      -1.09617990
Br      -0.04823609      -3.14233517      -0.71504286
H       -2.22256246      -1.14185218      -0.97515846
H       -2.23822325       1.29421378      -1.41588282
H       -0.10625054       2.52313841      -1.74199575
O        2.97445092      -1.67717515      -2.18658045
C        3.04333133      -1.41273007       0.13646944
O        6.84056356      -2.23833249       0.33616692
H        7.04834965      -2.23479915       1.28585943
H        7.35329985      -3.79155709      -0.15697635
O        7.65647178      -4.67174254      -0.44080701
H        6.84905810      -5.17956162      -0.55789800
H        3.98661704      -1.88051855       0.29281286
H        2.57778318      -1.06472324       1.02649524
H        5.84583947      -2.22604773       0.33159905
