40

 C 1.528052688 2.674634753 -1.656553572
 C 1.851524552 1.326533200 -1.531757085
 C 1.266171797 0.529678970 -0.543359338
 C 0.315445618 1.089837069 0.314474477
 C 0.004730586 2.432226181 0.155729227
 C 0.590374014 3.248938271 -0.801025225
 H 2.013012261 3.280223490 -2.427048187
 H 2.579928705 0.895175996 -2.218670408
 H -0.163913399 0.478732547 1.081570170
 Cl -1.173789720 3.118459379 1.202375916
 H 0.332132218 4.304718208 -0.894265419
 C 1.693150823 -0.891964067 -0.426585203
 C 2.313671788 -1.259689961 0.904497864
 H 2.631685636 -2.313191548 0.932119362
 H 1.631581790 -1.099706610 1.750938893
 H 3.214005773 -0.655758475 1.091616456
 N 0.681485971 -1.824124313 -0.840588507
 O 0.906896633 -3.033222981 -0.792245086
 O -0.392178004 -1.420580034 -1.286687883
 N 4.251058899 -0.301071233 -4.208969503
 C 4.262018479 -1.697348464 -4.748187423
 C 4.276616461 -1.738738514 -6.278529750
 C 3.085189849 -0.955451229 -6.838715224
 C 3.118694951 0.485230993 -6.320027945
 C 3.126748369 0.500995510 -4.786370063
 H 2.757994635 -1.017012713 -1.266946734
 H 5.153901257 -2.219138558 -4.332520363
 H 3.363487366 -2.226207064 -4.353660719
 H 4.248315441 -2.789901927 -6.624949955
 H 5.225278960 -1.324712769 -6.670205249
 H 3.105296269 -0.967056010 -7.944666586
 H 2.133232975 -1.445166188 -6.551875514
 H 2.241003942 1.049932707 -6.692318175
 H 4.001479604 1.016971793 -6.721469843
 H 3.216050680 1.548164474 -4.415554642
 H 2.165438493 0.092318408 -4.398946511
 H 5.151476217 0.166127568 -4.401611995
 H 4.339314318 -0.136895338 -1.200167987
 H 4.098425018 -0.450916962 -2.905027281
 O 3.973664155 -0.823289303 -1.754585635
