38
Coordinates from ORCA-job neb_NEB-CI_converged
  C   -1.67184086806148      2.44760415872615      1.04812275908877
  C   -1.69807110917189      1.05856782833289      1.03922231279201
  C   -1.90522789280939      0.35315877631555     -0.14948399146787
  C   -2.09954066896575      1.07271255653886     -1.32983829852629
  C   -2.05980276890802      2.45787673621079     -1.30140233300126
  C   -1.84589752717308      3.16686040089680     -0.12714349019583
  H   -1.50259501229052      2.97678664806575      1.97733200593848
  H   -1.53728486284506      0.51176031666889      1.95720352837937
  H   -2.27018632890371      0.56523461310817     -2.26766170444547
  Cl  -2.29004422261035      3.34118861429195     -2.80113656891615
  H   -1.81193217279902      4.24735105098637     -0.13402491162670
  C   -1.97951161419223     -1.14534867755927     -0.06742683736971
  C   -3.27667014169307     -1.67133741017610      0.53739874265136
  H   -3.48992139036049     -2.67300392163833      0.17393250545745
  H   -4.11702381505769     -1.02030693236693      0.28622379666312
  H   -3.19184829996079     -1.71285704590442      1.62412444409697
  N   -1.55230213016195     -1.84320522985226     -1.25008724699768
  O   -1.97592602005742     -2.97521499807993     -1.49595361687698
  O   -0.64614051009567     -1.34238286729135     -1.95628992862467
  N   1.50729398048382     -0.49083992474863     -0.31211546015113
  C   2.68353750248514     -1.35203265100801     -0.61854328070030
  C   3.81963413829180     -1.02905316552766      0.33365586150870
  O   4.15025496724516      0.35580532649504      0.28610944468825
  C   3.04125248596905      1.15768039744614      0.68371628372915
  C   1.85656417489269      0.95393795280805     -0.24237873600123
  H   0.98251550077006      1.49650129730942      0.11573405122359
  H   2.09726089565049      1.28010438198008     -1.25382054558025
  H   3.36434162108795      2.19640708232625      0.63751350266871
  H   2.76637623859277      0.91840077021838      1.71846385847855
  H   4.71029476203210     -1.58329826987400      0.04168552801721
  H   3.54965603691373     -1.30878177142399      1.35960455679063
  H   2.97588411909162     -1.16015573092458     -1.65016552584423
  H   -1.01191515170091     -1.43522773760497      0.74990380265240
  H   0.78481096525499     -0.63882478448181     -1.03182488326171
  H   2.37282608062902     -2.39174397969400     -0.51616260277621
  H   0.21862242040646     -2.43835835246495      1.72988439054574
  H   1.02523123421792     -0.84723345148188      0.58795465747496
  O   0.02732538380372     -1.49873200662247      1.61767392951827
