38
Coordinates from ORCA-job /home/rudenko/mop_saddle_orca_4_serv/for_orca/mcl-morpholine/orca/orca_start/start
  C   1.91590610834929      2.44667902861020      3.06360207221881
  C   1.83437898866437      1.05940621377929      3.02039215102569
  C   1.10966306766904      0.43488998564079      2.00915511765760
  C   0.46862030263943      1.20238291788308      1.03733663901476
  C   0.57530604195674      2.58317245901569      1.09121214014026
  C   1.29052404610454      3.22228427997320      2.09609097152783
  H   2.47861269934489      2.92887279569789      3.85233485365567
  H   2.33863234088790      0.46118741182478      3.76790545305342
  H   -0.10300048173437      0.73649359003506      0.24585542243766
  Cl  -0.21640479945331      3.54520297776748     -0.13927763766602
  H   1.35576947630731      4.30116369098660      2.11711434711003
  C   0.98667945528309     -1.07224654531049      2.00329774411727
  C   -0.41227526958926     -1.58200450855177      2.28526506628880
  H   -0.44536233645690     -2.67031511756570      2.24499146473694
  H   -1.13514979097280     -1.17343580475886      1.58140706566103
  H   -0.68584700939820     -1.26090722109581      3.29081446616662
  N   1.49038054043537     -1.58340703289882      0.64651099548132
  O   2.69754829251120     -1.55098366917555      0.45911249318232
  O   0.68362176236212     -1.97503662166446     -0.17506691321333
  N   5.02174335565843     -0.35027032597264      2.20505671613472
  C   6.08607445778077     -1.26281778566513      1.76874719104968
  C   7.32088606440457     -1.02863579250783      2.62085126284908
  O   7.75117947408599      0.33101171603101      2.54292311004462
  C   6.71480554988436      1.22647301660690      2.94909201466279
  C   5.46906498905957      1.04279238359735      2.10073949550810
  H   4.67978635584874      1.70767936570402      2.45352592605060
  H   5.70142620382948      1.31335996207626      1.06058649087438
  H   7.11272763034234      2.23500504317120      2.83995918317207
  H   6.47300690584361      1.05120259552811      4.00559589334534
  H   8.15302750162311     -1.63986470122953      2.27207025348218
  H   7.10576604653022     -1.28414114320019      3.66651140514812
  H   6.34247952444548     -1.10406025491711      0.71193828478245
  H   1.70706645378517     -1.48928476220721      2.70329070088838
  H   4.19886338982550     -0.49579670752279      1.62957910059099
  H   5.74558748730894     -2.29296583514373      1.88788101648128
  H   3.42347693999979     -1.69918450556506      4.62676312476173
  H   4.44342939912268     -0.81098989772794      3.85806057579165
  O   4.13815883571016     -1.06794120124836      4.77085434178472
