22
Properties=species:S:1:pos:R:3 pbc="F F F"
C        0.96422352      -0.65836948       1.30673179
H        1.10791261      -1.10640453       2.30124425
N        0.59512325      -2.89180460       0.37476763
O        0.65890957      -3.40206286       1.49073217
O        0.45226988      -3.58336066      -0.63408667
H        0.95051919       1.21111043       0.20726156
C        0.68383700      -1.48075400       0.22079100
H        0.53236680      -1.11014973      -0.79795726
H        3.55587400      -1.09404889      -1.21144517
C        1.07408762       0.70545034       1.15426292
H        1.29356588       1.36467093       1.98200468
C        5.60045761      -2.79686914       0.73340280
C        6.96581937      -2.75816556       0.42758702
C        7.54814771      -1.52621323       0.13498043
C        6.75562386      -0.37978818       0.14707826
C        5.39685084      -0.50547241       0.46055491
N        4.82937400      -1.69153800       0.75618700
H        5.09339383      -3.74039595       0.97537480
H        7.55575259      -3.67249133       0.42438208
H        7.18196165       0.59590469      -0.08051006
H        4.73013753       0.36520942       0.48409346
H        8.61255538      -1.45912443      -0.10260052
