28
Properties=species:S:1:pos:R:3 pbc="F F F"
C       -0.05484492      -0.45388402       0.15521080
H        0.34910777      -0.85293208       1.09257740
N        0.26377992      -2.63800513      -0.85755234
O        0.80997928      -3.09665313       0.18932605
O        0.16492896      -3.42572813      -1.83632061
H       -0.77232468       1.27929710      -0.86207880
C       -0.19844739      -1.39262876      -0.92813738
H       -0.63362518      -1.06040275      -1.86538225
H        8.04822901      -1.47163804      -5.12272490
C       -0.38591151       0.83798346       0.04008536
H       -0.28332391       1.55104607       0.83935692
C        4.96556704      -2.36123611      -5.82005074
C        3.55330370      -2.37711146      -5.82386624
C        2.86690721      -1.42202599      -5.06631182
C        3.60634097      -0.49827634      -4.33779968
C        5.01526236      -0.54570632      -4.37753258
N        5.71959074      -1.46194728      -5.11193909
H        5.52072957      -3.10564817      -6.42051199
H        3.08397640       0.25195953      -3.72308970
H        5.59394186       0.18740788      -3.78603219
C        2.74913621      -3.35716430      -6.60826615
H        2.54926656      -2.99186082      -7.63170007
H        1.75191767      -3.54177466      -6.16495958
H        3.22570201      -4.34117384      -6.71557400
H        1.76829786      -1.40656144      -5.04814891
H        2.57528864      -1.79256760      -1.72814584
O        3.42541672      -1.41963910      -1.97438547
H        4.03922951      -2.16176591      -1.93224475
