27
Coordinates from ORCA-job neb_initial_path E   0.000000000000
  C      -2.511250      0.629128     -0.092640
  C      -1.159548      0.669140      0.228416
  C      -0.245917     -0.175900     -0.395933
  C      -0.700252     -1.068568     -1.362927
  C      -2.051955     -1.089781     -1.675774
  C      -2.974132     -0.255626     -1.053356
  H      -3.207588      1.290059      0.408257
  H      -0.799412      1.356161      0.982055
  H      -0.025202     -1.739137     -1.875407
  H      -4.018419     -0.305147     -1.319727
  N      -2.524561     -2.029192     -2.696284
  O      -3.719314     -2.038231     -2.966290
  O      -1.703835     -2.758825     -3.238369
  C       1.210924     -0.114149     -0.012535
  H       1.310192      0.527648      0.897251
  C       1.863072     -1.457643      0.253219
  H       2.875662     -1.328813      0.625383
  H       1.892900     -2.087281     -0.635309
  H       1.278617     -1.966446      1.017595
  N       1.983204      0.671277     -1.060882
  O       3.165009      0.405555     -1.234957
  O       1.405986      1.584375     -1.637528
  O       2.491364      3.271419      3.553152
  H       2.385317      3.261154      4.510595
  H       0.422704      1.149693      2.938109
  H       2.017547      2.417171      3.201087
  O       1.338887      1.181958      2.642798
27
Coordinates from ORCA-job neb_initial_path E   0.000000000000
  C      -2.516717      0.628658     -0.100967
  C      -1.165241      0.669937      0.221826
  C      -0.250707     -0.177029     -0.399512
  C      -0.704420     -1.072904     -1.363813
  C      -2.055676     -1.095287     -1.677727
  C      -2.978555     -0.259143     -1.059347
  H      -3.213331      1.291354      0.396629
  H      -0.806457      1.359860      0.973843
  H      -0.028731     -1.745036     -1.873152
  H      -4.022531     -0.309259     -1.326949
  N      -2.526770     -2.037270     -2.696679
  O      -3.722510     -2.053768     -2.961156
  O      -1.704211     -2.761970     -3.242486
  C       1.205058     -0.114328     -0.013849
  H       1.304269      0.524595      0.897703
  C       1.859479     -1.458211      0.249755
  H       2.870607     -1.327629      0.625486
  H       1.893437     -2.084534     -0.641200
  H       1.273667     -1.971006      1.010586
  N       1.979772      0.671332     -1.057153
  O       3.169956      0.440078     -1.194587
  O       1.399131      1.552773     -1.671036
  O       2.496249      3.281903      3.588112
  H       2.425246      3.222603      4.545442
  H       0.443004      1.168864      2.933189
  H       2.023167      2.437406      3.215353
  O       1.352812      1.218008      2.621690
27
Coordinates from ORCA-job neb_initial_path E   0.000000000000
  C      -2.522162      0.628198     -0.109269
  C      -1.170902      0.670739      0.215258
  C      -0.255467     -0.178148     -0.403080
  C      -0.708568     -1.077224     -1.364692
  C      -2.059384     -1.100770     -1.679673
  C      -2.982958     -0.262644     -1.065320
  H      -3.219044      1.292650      0.385030
  H      -0.813461      1.363545      0.965661
  H      -0.032249     -1.750914     -1.870895
  H      -4.026623     -0.313351     -1.334153
  N      -2.528982     -2.045323     -2.697077
  O      -3.725673     -2.069246     -2.956031
  O      -1.704596     -2.765103     -3.246575
  C       1.199250     -0.114466     -0.015180
  H       1.298366      0.521567      0.898209
  C       1.855899     -1.458772      0.246304
  H       2.865556     -1.326441      0.625582
  H       1.893970     -2.081783     -0.647051
  H       1.268740     -1.975537      1.003597
  N       1.976601      0.671597     -1.053709
  O       3.174241      0.474699     -1.154165
  O       1.392625      1.520731     -1.704228
  O       2.500513      3.292326      3.624378
  H       2.465409      3.183709      4.578433
  H       0.463521      1.187976      2.928195
  H       2.028870      2.457875      3.229765
  O       1.366509      1.254109      2.600686
27
Coordinates from ORCA-job neb_initial_path E   0.000000000000
  C      -2.527591      0.627744     -0.117556
  C      -1.176540      0.671544      0.208705
  C      -0.260202     -0.179256     -0.406643
  C      -0.712701     -1.081532     -1.365566
  C      -2.063084     -1.106239     -1.681613
  C      -2.987347     -0.266134     -1.071282
  H      -3.224736      1.293944      0.373449
  H      -0.820434      1.367219      0.957500
  H      -0.035760     -1.756776     -1.868634
  H      -4.030702     -0.317431     -1.341343
  N      -2.531200     -2.053362     -2.697477
  O      -3.728806     -2.084684     -2.950910
  O      -1.704991     -2.768225     -3.250645
  C       1.193493     -0.114559     -0.016529
  H       1.292478      0.518568      0.898769
  C       1.852328     -1.459326      0.242859
  H       2.860507     -1.325243      0.625668
  H       1.894500     -2.079023     -0.652872
  H       1.263831     -1.980042      0.996617
  N       1.973712      0.672100     -1.050565
  O       3.177790      0.509425     -1.113711
  O       1.386502      1.488228     -1.737056
  O       2.504319      3.302444      3.662083
  H       2.505669      3.144691      4.609472
  H       0.484280      1.207064      2.923109
  H       2.034684      2.478581      3.244376
  O       1.380001      1.290282      2.579796
27
Coordinates from ORCA-job neb_initial_path E   0.000000000000
  C      -2.533010      0.627292     -0.125829
  C      -1.182159      0.672351      0.202165
  C      -0.264917     -0.180354     -0.410202
  C      -0.716822     -1.085830     -1.366436
  C      -2.066779     -1.111697     -1.683549
  C      -2.991724     -0.269617     -1.077234
  H      -3.230412      1.295234      0.361883
  H      -0.827381      1.370881      0.949356
  H      -0.039266     -1.762623     -1.866371
  H      -4.034770     -0.321504     -1.348524
  N      -2.533423     -2.061391     -2.697880
  O      -3.731911     -2.100092     -2.945789
  O      -1.705395     -2.771335     -3.254701
  C       1.187788     -0.114605     -0.017899
  H       1.286607      0.515602      0.899385
  C       1.848766     -1.459871      0.239415
  H       2.855457     -1.324032      0.625739
  H       1.895030     -2.076250     -0.658671
  H       1.258941     -1.984526      0.989637
  N       1.971118      0.672859     -1.047724
  O       3.180558      0.544225     -1.073276
  O       1.380780      1.455286     -1.769461
  O       2.507859      3.312004      3.701250
  H       2.545844      3.105809      4.638539
  H       0.505287      1.226153      2.917917
  H       2.040633      2.499507      3.259224
  O       1.393301      1.326525      2.559038
27
Coordinates from ORCA-job neb_initial_path E   0.000000000000
  C      -2.538437      0.626839     -0.134116
  C      -1.187779      0.673162      0.195616
  C      -0.269626     -0.181445     -0.413771
  C      -0.720944     -1.090132     -1.367307
  C      -2.070481     -1.117163     -1.685488
  C      -2.996107     -0.273108     -1.083196
  H      -3.236093      1.296520      0.350295
  H      -0.834327      1.374543      0.941203
  H      -0.042778     -1.768473     -1.864100
  H      -4.038842     -0.325588     -1.355717
  N      -2.535660     -2.069436     -2.698290
  O      -3.734998     -2.115523     -2.940653
  O      -1.705809     -2.774442     -3.258760
  C       1.182116     -0.114600     -0.019295
  H       1.280735      0.512667      0.900055
  C       1.845202     -1.460406      0.235957
  H       2.850391     -1.322800      0.625794
  H       1.895562     -2.073452     -0.664470
  H       1.254057     -1.989002      0.982631
  N       1.968812      0.673885     -1.045171
  O       3.182543      0.579159     -1.032795
  O       1.375444      1.421859     -1.801488
  O       2.511343      3.320795      3.741936
  H       2.585861      3.067207      4.665783
  H       0.526606      1.245319      2.912591
  H       2.046750      2.520690      3.274384
  O       1.406459      1.362927      2.538374
27
Coordinates from ORCA-job neb_initial_path E   0.000000000000
  C      -2.543877      0.626381     -0.142418
  C      -1.193404      0.673975      0.189057
  C      -0.274333     -0.182530     -0.417351
  C      -0.725070     -1.094439     -1.368181
  C      -2.074193     -1.122641     -1.687431
  C      -3.000497     -0.276610     -1.089170
  H      -3.241784      1.297798      0.338681
  H      -0.841278      1.378205      0.933038
  H      -0.046298     -1.774326     -1.861823
  H      -4.042922     -0.329687     -1.362925
  N      -2.537911     -2.077503     -2.698708
  O      -3.738070     -2.130988     -2.935498
  O      -1.706232     -2.777545     -3.262827
  C       1.176472     -0.114544     -0.020716
  H       1.274862      0.509766      0.900776
  C       1.841636     -1.460930      0.232480
  H       2.845308     -1.321544      0.625828
  H       1.896097     -2.070625     -0.670277
  H       1.249176     -1.993475      0.975589
  N       1.966781      0.675177     -1.042889
  O       3.183766      0.614181     -0.992315
  O       1.370475      1.388005     -1.833108
  O       2.514970      3.328618      3.784013
  H       2.625545      3.029118      4.691353
  H       0.548241      1.264586      2.907118
  H       2.053053      2.542101      3.289885
  O       1.419485      1.399475      2.517818
27
Coordinates from ORCA-job neb_initial_path E   0.000000000000
  C      -2.549338      0.625916     -0.150745
  C      -1.199042      0.674790      0.182480
  C      -0.279045     -0.183610     -0.420949
  C      -0.729204     -1.098755     -1.369059
  C      -2.077919     -1.128138     -1.689381
  C      -3.004902     -0.280129     -1.095161
  H      -3.247494      1.299066      0.327032
  H      -0.848243      1.381870      0.924851
  H      -0.049830     -1.780189     -1.859539
  H      -4.047015     -0.333810     -1.370155
  N      -2.540178     -2.085602     -2.699135
  O      -3.741130     -2.146505     -2.930318
  O      -1.706663     -2.780646     -3.266909
  C       1.170849     -0.114437     -0.022163
  H       1.268984      0.506902      0.901544
  C       1.838065     -1.461442      0.228978
  H       2.840203     -1.320258      0.625839
  H       1.896639     -2.067762     -0.676103
  H       1.244298     -1.997948      0.968500
  N       1.964999      0.676724     -1.040846
  O       3.184284      0.649268     -0.951846
  O       1.365832      1.353777     -1.864334
  O       2.518918      3.335331      3.827309
  H       2.664772      2.991706      4.715496
  H       0.570205      1.283989      2.901485
  H       2.059556      2.563720      3.305757
  O       1.432399      1.436173      2.497371
