15
Properties=species:S:1:pos:R:3 pbc="F F F"
C       -0.71021700       2.88342800       0.70878600
C        0.76956867       2.79675862       0.84398037
C        1.36609136       1.44374219       1.04280605
H       -1.22562945       2.26207499       1.45754839
H       -1.10721700       3.90877745       0.80388451
H       -1.04445452       2.51297640      -0.27611491
O        1.47256027       3.78692254       0.78125698
H        2.41843989       1.48446436       1.35877688
H        0.82798986       0.84685257       1.79484126
H        1.33099468       0.85492078       0.11045671
O       -1.75552500       6.21412900      -0.25448500
H       -2.46969823       6.80132639      -0.52714602
H       -0.98923796       6.54346761      -0.73754131
O       -3.14261611       9.54696579      -2.03679023
H       -3.58474840      10.31180207      -2.18082211
