31
Coordinates from ORCA-job neb_initial_path E   0.000000000000
  C      -3.363948      1.704652     -0.437633
  H      -3.795474      2.698290     -0.485085
  N      -4.974022      0.733781      1.215798
  O      -5.845023      1.019677      0.413414
  O      -5.185226      0.242658      2.313841
  H      -2.252870      0.218850     -1.436646
  C      -3.522226      0.969545      0.847045
  H      -3.078183     -0.028551      0.823039
  H      -3.119439      1.516162      1.700723
  C      -2.692388      1.208871     -1.469615
  H      -2.559131      1.782991     -2.378202
  C       1.399962     -1.622895     -0.094415
  C       2.687373     -1.110726     -0.221090
  C       2.865590      0.266925     -0.010873
  C       1.742920      1.023910      0.316736
  C       0.502244      0.415168      0.422178
  N       0.325663     -0.891900      0.218353
  H       1.228840     -2.683005     -0.254639
  H       1.837694      2.089028      0.487949
  H      -0.379457      0.991932      0.675148
  C       3.836760     -2.010348     -0.568572
  H       4.586681     -2.013699      0.226800
  H       4.339186     -1.674063     -1.478814
  H       3.498229     -3.034741     -0.721574
  C       4.217132      0.902633     -0.136634
  H       4.171340      1.968878      0.080201
  H       4.615332      0.769760     -1.146042
  H       4.932223      0.437362      0.546072
  H      -1.290092     -1.654671      0.391111
  O      -2.183145     -2.067440      0.524720
  H      -2.546546     -2.169033     -0.363295
31
Coordinates from ORCA-job neb_initial_path E   0.000000000000
  C      -3.354910      1.768416     -0.194754
  H      -3.869773      2.720360     -0.115576
  N      -4.974492      0.572140      1.281551
  O      -5.851791      0.937222      0.506171
  O      -5.207720     -0.060802      2.309282
  H      -2.284516      0.519211     -1.532409
  C      -3.548959      0.857274      0.948511
  H      -3.081622     -0.267644      0.740693
  H      -3.098380      1.188439      1.882662
  C      -2.681430      1.501726     -1.309431
  H      -2.484277      2.273462     -2.044305
  C       1.372525     -1.608436     -0.104532
  C       2.671870     -1.120137     -0.156787
  C       2.865932      0.270592     -0.191039
  C       1.733849      1.078438     -0.149692
  C       0.496681      0.487046      0.042661
  N       0.288529     -0.828890     -0.044887
  H       1.196648     -2.678639     -0.076833
  H       1.841925      2.155443     -0.126952
  H      -0.279061      1.039456      0.559271
  C       3.834038     -2.065973     -0.182456
  H       4.489761     -1.906576      0.677069
  H       4.434618     -1.912281     -1.081986
  H       3.495540     -3.101237     -0.165550
  C       4.233654      0.874979     -0.273956
  H       4.191406      1.963017     -0.276125
  H       4.737473      0.545363     -1.186236
  H       4.854920      0.550668      0.564276
  H      -1.224841     -1.559586      0.081251
  O      -2.193424     -2.049223      0.243942
  H      -2.604172     -2.143829     -0.623834
31
Coordinates from ORCA-job neb_initial_path E   0.000000000000
  C      -3.353899      1.839601      0.091134
  H      -4.023202      2.688019      0.207435
  N      -4.964098      0.428613      1.353710
  O      -5.869323      0.813861      0.605000
  O      -5.212068     -0.282929      2.334759
  H      -2.494968      0.839363     -1.567773
  C      -3.564353      0.750951      1.046465
  H      -3.092613     -0.477898      0.636404
  H      -3.034186      0.882520      1.986120
  C      -2.723498      1.781394     -1.080991
  H      -2.545396      2.671428     -1.674775
  C       1.356858     -1.585689     -0.007955
  C       2.665400     -1.122217     -0.043549
  C       2.911661      0.243867     -0.259668
  C       1.811783      1.070561     -0.420921
  C       0.574453      0.449679     -0.610920
  N       0.293840     -0.810777     -0.250120
  H       1.147801     -2.640426      0.128107
  H       1.934922      2.133647     -0.588390
  H      -0.182069      1.100638     -0.203812
  C       3.809768     -2.068173      0.146201
  H       4.400920     -1.784193      1.020013
  H       4.475813     -2.052307     -0.719316
  H       3.448177     -3.085346      0.288729
  C       4.286604      0.827930     -0.336386
  H       4.268838      1.903064     -0.507440
  H       4.851804      0.356835     -1.144227
  H       4.827287      0.627519      0.591409
  H      -1.156985     -1.417121     -0.201730
  O      -2.195179     -1.985958      0.011756
  H      -2.654091     -2.096455     -0.829268
31
Coordinates from ORCA-job neb_initial_path E   0.000000000000
  C      -3.357158      1.872538      0.234904
  H      -4.125088      2.641263      0.226438
  N      -4.971223      0.385532      1.368312
  O      -5.879088      0.765516      0.606666
  O      -5.240932     -0.324975      2.354941
  H      -2.403965      1.023648     -1.341885
  C      -3.592356      0.721597      1.096182
  H      -3.100226     -0.647614      0.630551
  H      -3.037631      0.772273      2.028215
  C      -2.460527      1.936140     -0.755065
  H      -2.395327      2.802659     -1.409220
  C       1.307418     -1.536905      0.076215
  C       2.626807     -1.095009      0.025879
  C       2.862521      0.275349     -0.207387
  C       1.724660      1.084464     -0.343089
  C       0.553019      0.447638     -0.760104
  N       0.257176     -0.750241     -0.233889
  H       1.099465     -2.592891      0.202969
  H       1.882094      2.118709     -0.625715
  H       0.188622      0.613738     -1.771467
  C       3.771514     -2.039602      0.225784
  H       4.359361     -1.731541      1.093862
  H       4.448101     -2.052924     -0.631719
  H       3.405881     -3.051443      0.393265
  C       4.245928      0.835143     -0.333343
  H       4.228226      1.902986     -0.545002
  H       4.826499      0.337021     -1.114265
  H       4.784226      0.668905      0.603286
  H      -1.090802     -1.338899     -0.244258
  O      -2.224902     -1.948131     -0.010016
  H      -2.692295     -2.094942     -0.841044
31
Coordinates from ORCA-job neb_initial_path E   0.000000000000
  C      -3.527703      1.743389      0.113367
  H      -4.244383      2.555286      0.093671
  N      -5.007782      0.316459      1.343362
  O      -5.920927      0.704153      0.579794
  O      -5.272706     -0.401218      2.334965
  H      -1.597396      1.705125     -0.047219
  C      -3.664900      0.709086      1.121914
  H      -3.084859     -0.730637      0.504690
  H      -3.098605      0.684364      2.044829
  C      -2.452095      1.912937     -0.672105
  H      -2.306719      2.718300     -1.377652
  C       1.273802     -1.515434      0.120067
  C       2.594408     -1.081268      0.053467
  C       2.841652      0.270987     -0.258272
  C       1.729593      1.038902     -0.612348
  C       0.612976      0.315079     -1.037085
  N       0.245546     -0.751851     -0.301354
  H       1.054649     -2.564453      0.277695
  H       1.919603      2.056381     -0.933325
  H       0.070042      0.451603     -1.965375
  C       3.740540     -2.012811      0.299260
  H       4.313363     -1.665204      1.162337
  H       4.431503     -2.060714     -0.545543
  H       3.372834     -3.017136      0.502019
  C       4.224672      0.835497     -0.362779
  H       4.217697      1.894580     -0.615459
  H       4.830302      0.306206     -1.103089
  H       4.728854      0.711698      0.598827
  H      -1.021748     -1.262046     -0.294844
  O      -2.277196     -1.871468     -0.088721
  H      -2.725017     -1.995791     -0.935093
31
Coordinates from ORCA-job neb_initial_path E   0.000000000000
  C      -3.275261      1.643306      0.181739
  H      -4.066853      2.324899     -0.106222
  N      -4.932462      0.258991      1.295014
  O      -5.823895      0.716126      0.532982
  O      -5.259494     -0.524032      2.229417
  H      -1.263749      1.808811      0.614511
  C      -3.599876      0.642278      1.164905
  H      -3.039553     -0.846259      0.296734
  H      -3.038757      0.421341      2.062337
  C      -2.034271      2.046233     -0.111488
  H      -1.872353      2.829052     -0.839817
  C       1.169454     -1.444220      0.139949
  C       2.484727     -1.009695      0.080151
  C       2.739621      0.291143     -0.396197
  C       1.687363      0.940805     -1.042608
  C       0.514463      0.237794     -1.277063
  N       0.173187     -0.757419     -0.442539
  H       0.934446     -2.462119      0.424074
  H       1.890623      1.902238     -1.496397
  H      -0.175881      0.408405     -2.090525
  C       3.614053     -1.893728      0.511075
  H       4.132866     -1.437469      1.357391
  H       4.354813     -2.039717     -0.278496
  H       3.239274     -2.869671      0.814129
  C       4.125814      0.854475     -0.447431
  H       4.134365      1.875578     -0.824551
  H       4.793064      0.247482     -1.065268
  H       4.550770      0.856456      0.559423
  H      -0.988411     -1.237108     -0.439152
  O      -2.362305     -1.847533     -0.276265
  H      -2.805781     -1.936444     -1.129812
31
Coordinates from ORCA-job neb_initial_path E   0.000000000000
  C      -2.993859      1.600298      0.385441
  H      -3.742131      2.173607     -0.148026
  N      -4.799602      0.220257      1.278796
  O      -5.649484      0.783593      0.527519
  O      -5.195803     -0.652815      2.114094
  H      -0.963843      1.587935      0.985348
  C      -3.471489      0.549261      1.233421
  H      -3.000692     -0.955248      0.061840
  H      -2.903094      0.120521      2.045804
  C      -1.720606      2.018612      0.338993
  H      -1.452873      2.855313     -0.291557
  C       1.046505     -1.373400      0.104174
  C       2.352453     -0.922145      0.094182
  C       2.641688      0.285614     -0.570563
  C       1.641374      0.837340     -1.372530
  C       0.422765      0.197078     -1.491428
  N       0.103817     -0.797008     -0.653547
  H       0.767622     -2.313284      0.560620
  H       1.848736      1.747004     -1.919581
  H      -0.348033      0.468781     -2.197172
  C       3.430102     -1.704858      0.777840
  H       3.872688     -1.106266      1.577115
  H       4.235639     -1.972559      0.090306
  H       3.028130     -2.620033      1.208568
  C       4.023535      0.857280     -0.566109
  H       4.066156      1.802149     -1.104150
  H       4.742075      0.164392     -1.011898
  H       4.352986      1.027432      0.462050
  H      -0.959272     -1.232706     -0.648707
  O      -2.461920     -1.807844     -0.508551
  H      -2.913568     -1.838301     -1.362292
31
Coordinates from ORCA-job neb_initial_path E   0.000000000000
  C      -2.748894      1.532313      0.624510
  H      -3.441064      2.112670      0.024816
  N      -4.636467      0.152273      1.306702
  O      -5.448584      0.834402      0.597988
  O      -5.089535     -0.820885      2.005450
  H      -0.718295      1.330203      1.228135
  C      -3.317082      0.422585      1.323003
  H      -2.965624     -1.032489     -0.188081
  H      -2.739173     -0.193201      1.995609
  C      -1.450816      1.885731      0.652974
  H      -1.092553      2.735701      0.088220
  C       0.936390     -1.344413      0.009236
  C       2.220695     -0.845916      0.097899
  C       2.572453      0.231589     -0.740831
  C       1.612040      0.745857     -1.612416
  C       0.346658      0.205184     -1.649298
  N       0.047064     -0.823107     -0.848690
  H       0.586317     -2.166019      0.617689
  H       1.851704      1.574523     -2.263555
  H      -0.440996      0.563311     -2.294453
  C       3.196781     -1.445427      1.062843
  H       3.557295     -0.690688      1.765130
  H       4.069370     -1.838060      0.535912
  H       2.739400     -2.255858      1.627527
  C       3.948174      0.812028     -0.695458
  H       4.055889      1.629474     -1.405172
  H       4.692870      0.044628     -0.921485
  H       4.174459      1.181524      0.308054
  H      -0.922860     -1.202642     -0.865741
  O      -2.563839     -1.706395     -0.772132
  H      -3.031775     -1.628895     -1.614383
