27
Coordinates from ORCA-job neb
  C   -2.88713784779296      1.49341042856727     -0.12818430668032
  H   -2.24843421332541      1.85710167599494     -0.93155646667585
  N   -1.85169183058806     -0.72952349090272     -0.12943537662090
  O   -1.65131451785669     -0.58656750367240     -1.35559001285016
  O   -1.61365014354756     -1.82974666464259      0.42295876274797
  H   -3.08329573335866      0.92252702133326      2.53039343213586
  C   -2.22926170737070      0.37851625600954      0.65597001896322
  H   -0.98105550725575      0.83865838500076      0.99085901699270
  H   -3.84028060354559      1.18016499766270     -0.56985842730479
  C   -2.88310073714213      0.00798272253027      1.97077751615724
  H   -3.83622510957202     -0.51278885493113      1.82376815135073
  C   2.88849928317930      0.70345907974867     -0.66311706056157
  C   3.78499799092626      0.07121603060711     -1.50239223163684
  C   3.55969021141451     -1.25865984742168     -1.84218602715692
  C   2.44563956066110     -1.91845830727106     -1.33560612744289
  C   1.58521606327797     -1.23185733913873     -0.50038978834767
  N   1.82291042558996      0.04813369093161     -0.18683764842733
  H   4.64068099953356      0.61188574475283     -1.88012972754201
  H   4.24695699211955     -1.77656784038995     -2.49803908106325
  H   2.24201568401384     -2.95030610839497     -1.58277714666159
  H   -3.08752010294713      2.32490639778240      0.54857971434479
  H   -2.24170351804610     -0.62789301003723      2.57851917838011
  H   0.69456195810936     -1.67411348741254     -0.07491011883953
  H   2.99497020121991      1.73398001639061     -0.35458074119306
  H   0.27144987409546      1.05619452305505      2.22665403008156
  H   1.10574865777187      0.58626136599003      0.49179359250203
  O   0.15133367043610      1.28208411785795      1.29531687534846
