27
Properties=species:S:1:pos:R:3 pbc="F F F"
C        0.85143671      -0.54121995      -0.86714276
H        1.00220062      -0.78842324      -1.92766424
N        0.73359421      -2.94168194      -0.43716083
O        0.60583734      -3.17473856      -1.67915138
O        0.66066487      -3.95049510       0.33538478
H        1.78652182      -0.61244633       1.67489498
C        0.97412868      -1.72558680       0.02783922
H        3.06738590      -2.07182351      -0.77616975
H       -0.15174060      -0.09074077      -0.78615278
C        1.16750990      -1.50033345       1.48683659
H        0.20991579      -1.34285290       2.00401452
C        4.66666055      -2.47574919      -4.17493969
C        4.95709769      -3.01389264      -5.42513788
C        5.04596413      -4.39805339      -5.57433421
C        4.83077436      -5.21908590      -4.46710408
C        4.54177211      -4.64460413      -3.23258214
N        4.46984959      -3.29222029      -3.10594351
H        5.11179561      -2.34671412      -6.27899798
H        5.27591659      -4.83597982      -6.55202272
H        4.88620868      -6.30895903      -4.55904141
H        1.57447383       0.24398338      -0.61213826
H        1.66174988      -2.35256977       1.97643078
H        4.36267102      -5.25395994      -2.32768575
H        4.58436050      -1.38780027      -4.00749848
H        4.24103131      -2.71659686      -0.06310809
H        4.27264979      -2.86164838      -2.15238184
O        4.04545698      -2.12564542      -0.83097942
