27
Properties=species:S:1:pos:R:3 pbc="F F F"
C       -0.77373000       1.16768000      -0.07989000
C        0.58230000       1.18121000       0.23895000
C        1.33178000      -0.00286000       0.21123000
C        0.70543000      -1.20323000      -0.10226000
C       -0.66092000      -1.20596000      -0.40109000
C       -1.41056000      -0.02697000      -0.40953000
H       -1.34704000       2.09974000      -0.06523000
H        1.05895000       2.13145000       0.50553000
H        1.25598000      -2.15301000      -0.11422000
H       -2.47476000      -0.03623000      -0.66807000
N       -1.28645000      -2.47112000      -0.69928000
O       -2.46913000      -2.50162000      -1.00988000
O       -0.61616000      -3.49520000      -0.62686000
C        2.79120000       0.02949000       0.57482000
H        2.90727000       0.51356000       1.60886000
C        3.45458000      -1.34116000       0.62395000
H        4.51004000      -1.28087000       0.92801000
H        3.42967000      -1.87408000      -0.33605000
H        2.95399000      -1.98556000       1.36623000
N        3.55824000       0.90503000      -0.37306000
O        4.74621000       1.08582000      -0.15242000
O        2.98955000       1.42771000      -1.31733000
O        2.63422000       2.55593000       6.05669000
H        2.92583000       1.85169000       5.58186000
H        2.04886000       1.12344000       3.70127000
H        3.48935000       1.57349000       3.56331000
O        2.93472000       0.78373000       3.52398000
