27
Coordinates from ORCA-job /home/rudenko/mop_saddle_orca_4_serv/for_orca/m-o2nc6h4chno2ch3_oh/orca/orca_end/end
  C   0.80030750230088      0.69881192669894      0.98549633128761
  C   1.20363470048059      0.49487212118301     -0.33073371190260
  C   0.53121270528325     -0.40728203920165     -1.15616573844755
  C   -0.55796121067542     -1.10863324227769     -0.64542793805249
  C   -0.94569601340196     -0.88755914839540      0.66731332642448
  C   -0.28419595040658      0.00671360774087      1.50050377819661
  H   1.33329150724728      1.40208501382068      1.61012293007480
  H   2.05503500252523      1.03500685547925     -0.72760839919319
  H   -1.10560828779036     -1.81544765814281     -1.25120680484646
  H   -0.61534858389785      0.15083759764395      2.51739544063988
  N   -2.10240345000848     -1.62032678458221      1.19181543988264
  O   -2.39913819576203     -1.46464463116516      2.36958911963925
  O   -2.72075341529815     -2.35394393805236      0.43046671480759
  C   1.00717053458515     -0.61534326478412     -2.56902865105697
  H   2.01320126612203     -0.14431088876574     -2.69133540198641
  C   1.09801173049721     -2.07018955245298     -3.01382346987524
  H   1.56005126850239     -2.13861582103232     -3.99542902968713
  H   0.12029167047988     -2.55308297497198     -3.04704180378910
  H   1.72384296247912     -2.60210892617838     -2.29780112837649
  N   0.15129068089146      0.17206973475612     -3.53948072340361
  O   0.29585967073360     -0.05413015554150     -4.73248772367169
  O   -0.59682719627251      1.03620697683854     -3.10460144680229
  O   5.36799223054724      2.04569289322028     -4.13067609908366
  H   6.20476770859901      1.56920178932252     -4.16216589289986
  H   4.06582309605928      0.45932084599998     -1.97419366860329
  H   4.72040518834390      1.42983447905894     -3.60175037581920
  O   3.73055353783578      0.52922714378125     -2.87561186345545
