27
Coordinates from ORCA-job neb_NEB-CI_converged
  C   -2.53337405793010      0.62759363162967     -0.12547873086575
  C   -1.18223072123122      0.67179837882234      0.20287695793235
  C   -0.26468496854601     -0.18085503733925     -0.41127389470614
  C   -0.71636675886295     -1.08558797763356     -1.36621759419822
  C   -2.06645591935193     -1.11117268672741     -1.68318766100630
  C   -2.99166222147533     -0.26970983396131     -1.07746348271161
  H   -3.23063660706443      1.29527564806114      0.36197445351301
  H   -0.82726603609179      1.37109287764836      0.94924810067707
  H   -0.03965710558330     -1.76181326530672     -1.86595335825446
  H   -4.03491612224540     -0.32136622827204     -1.34838830714379
  N   -2.53351846359790     -2.06115176174583     -2.69804510213067
  O   -3.73225219319632     -2.10043396347886     -2.94611497617063
  O   -1.70545994963426     -2.77160290342214     -3.25455618064361
  C   1.18716529537554     -0.11599101788580     -0.01787739716899
  H   1.28674419805239      0.51526436158811      0.90052460673496
  C   1.84830603643449     -1.45940987806094      0.23937163177419
  H   2.85569593253549     -1.32421786836697      0.62584508668882
  H   1.89499009091299     -2.07650090924426     -0.65890575033270
  H   1.25870033111516     -1.98504456275593      0.99023367960778
  N   1.97321519948332      0.67463231676887     -1.05018454712253
  O   3.18799397034277      0.53992826608311     -1.07001962275108
  O   1.37276997550201      1.45927588872603     -1.77162613810251
  O   2.50874655714860      3.31388601525765      3.70095556162720
  H   2.54627283134814      3.10553156867865      4.64042884304856
  H   0.50457235060810      1.22562435343213      2.91770602529427
  H   2.03964509429176      2.49899137353394      3.25714355476428
  O   1.39366326166020      1.32596321397102      2.55898424164650
