27
Coordinates from ORCA-job /home/rudenko/mop_saddle_orca_4_serv/for_orca/p-o2nc6h4chno2ch3_oh/orca/orca_start/start
  C   -1.05752749526519      0.36360180290992      0.77781671393328
  C   0.26368209241689      0.28698929561525      1.19129891956666
  C   1.24370936285987     -0.22424773044633      0.34153636122800
  C   0.88955697432901     -0.65979650520693     -0.93751073535811
  C   -0.42327158676595     -0.58379600975235     -1.36929995806454
  C   -1.38069449636238     -0.07336836250470     -0.49967244282400
  H   -1.82373400265124      0.75754757645676      1.42789087943566
  H   0.54885456900215      0.62662874444079      2.17892295089569
  H   1.64387099466792     -1.05691235293547     -1.60454580647920
  C   2.66541893354119     -0.33619091482923      0.83486679524581
  H   2.72600148882527      0.11524701193926      1.85119360905003
  C   3.19830444535229     -1.75525043865316      0.86190804171285
  H   4.20090501132005     -1.78453114819516      1.28444748239862
  H   3.21655762411401     -2.20711523390506     -0.13009326515417
  H   2.53920261631332     -2.34656159038351      1.49866523562834
  N   3.55130748598820      0.57806696746375      0.00834453005727
  O   4.63848371444898      0.17307203248405     -0.37128935891798
  O   3.14457220404662      1.71556976574568     -0.19041776876125
  O   2.52516355048578      2.65058556683422      5.27727201819149
  H   2.90797688578389      2.33992749061378      6.10463717095215
  H   -0.70585486603868     -0.91390216680189     -2.35715182409814
  N   -2.77292936858590      0.00646102787105     -0.94632967360963
  O   -3.04250012026600     -0.37788193834496     -2.07795612563574
  O   -3.60797579629772      0.45333807174945     -0.16907173182872
  H   2.02583932764821      0.03567598651541      3.93054757944119
  H   2.58080785687750      1.84147190486383      4.62696918755246
  O   2.67550259421184      0.68989114645554      3.64866121544191
