23
Coordinates from ORCA-job /home/rudenko/mop_saddle_orca_4_serv/for_orca/ch32chno2_ch3coo_new/orca/orca_end/end
  C   1.38496067051379     -1.05943637899091      0.00417802089352
  H   3.32286556301391     -0.42590693665856     -0.35117111294083
  N   1.90490693801159     -1.79619109580117      0.97854445378175
  O   2.22934372202666     -3.03338913430280      0.77392629905750
  O   2.10873753963957     -1.29655952464623      2.15606380321324
  C   5.99738931103437     -2.85796274980498      0.51423635828220
  O   5.76107923712714     -1.65532928212462      1.03694235959245
  O   5.63973649657258     -3.17877685510935     -0.60283336666043
  C   6.72815761080513     -3.76531780627169      1.46228664636505
  H   7.04592473274456     -4.66761655554349      0.94664354336288
  H   6.05677920612049     -4.03265924199293      2.28166693906408
  H   7.58702710149656     -3.25173867342546      1.89509795023420
  C   0.88356444400342      0.31213500666261      0.34058339501647
  H   1.64400379857873      0.92216078650388      0.83397894177660
  H   0.02394750518738      0.27528615110536      1.02185253189161
  H   0.56913678273411      0.82589797223039     -0.56812775686424
  C   1.07844385540817     -1.72409757105196     -1.30228214536367
  H   0.31160796373254     -2.50169738664504     -1.19727132356344
  H   1.95841419112482     -2.21435681117280     -1.72655998088779
  H   0.71749962714025     -0.98629421734738     -2.01898711018825
  H   5.21823934055598     -1.09723652536377      0.40849137013324
  O   4.23162688158303     -0.09900601286186     -0.52678783654816
  H   4.24376752084494      0.80217185261289     -0.17721209964800
