23
Coordinates from ORCA-job neb_initial_path E   0.000000000000
  C      -1.246464      0.126300     -0.038841
  H      -0.198823      0.397766      0.049710
  N      -1.581633     -0.506218      1.304749
  O      -0.694108     -0.585144      2.139846
  O      -2.724157     -0.902395      1.483722
  C       2.414870     -0.336101      0.321259
  O       2.761772      0.172115      1.411570
  O       2.070667      0.310421     -0.716649
  C       2.359590     -1.858100      0.216441
  H       2.603462     -2.193295     -0.791877
  H       1.338950     -2.185946      0.434779
  H       3.027642     -2.330969      0.935924
  C      -2.116267      1.359467     -0.221014
  H      -1.970779      2.064320      0.598616
  H      -3.169084      1.088908     -0.284308
  H      -1.826671      1.849411     -1.150854
  C      -1.428290     -0.921802     -1.124563
  H      -2.472103     -1.220403     -1.213427
  H      -0.815419     -1.800713     -0.926399
  H      -1.106690     -0.485398     -2.070738
  H       1.735857      1.941085     -0.476449
  O       1.512553      2.910344     -0.413024
  H       1.525123      3.106348      0.531528
23
Coordinates from ORCA-job neb_initial_path E   0.000000000000
  C      -1.360886      0.174496     -0.104350
  H      -0.190124      0.515536     -0.032646
  N      -1.558378     -0.501506      1.204336
  O      -0.640833     -0.747645      1.982378
  O      -2.693350     -0.811727      1.565968
  C       2.490389     -0.403452      0.304891
  O       2.715910      0.219904      1.380200
  O       2.174663      0.093809     -0.812500
  C       2.559185     -1.922017      0.350150
  H       2.822053     -2.334325     -0.622910
  H       1.574439     -2.303470      0.629376
  H       3.278594     -2.245732      1.101355
  C      -2.212757      1.424177     -0.171111
  H      -1.975395      2.104272      0.647701
  H      -3.271800      1.170402     -0.131350
  H      -2.012816      1.932935     -1.113918
  C      -1.542846     -0.811565     -1.234963
  H      -2.562179     -1.194512     -1.284867
  H      -0.861094     -1.653994     -1.124342
  H      -1.321226     -0.302182     -2.173113
  H       1.821480      1.761804     -0.393845
  O       1.392253      2.765988     -0.441513
  H       1.374717      3.068804      0.475071
23
Coordinates from ORCA-job neb_initial_path E   0.000000000000
  C      -1.474313      0.219003     -0.162194
  H      -0.186646      0.639179     -0.111411
  N      -1.551682     -0.494411      1.100728
  O      -0.613719     -0.954714      1.755184
  O      -2.635339     -0.672690      1.680085
  C       2.552959     -0.481312      0.285736
  O       2.661508      0.242771      1.331313
  O       2.252061     -0.111661     -0.876769
  C       2.755685     -1.968983      0.481456
  H       3.033931     -2.454369     -0.451600
  H       1.820690     -2.407641      0.833010
  H       3.513706     -2.138683      1.245048
  C      -2.301543      1.480864     -0.122677
  H      -1.979198      2.138000      0.685783
  H      -3.357135      1.241955      0.013170
  H      -2.187787      2.006944     -1.069968
  C      -1.651480     -0.704576     -1.336128
  H      -2.635685     -1.174454     -1.352975
  H      -0.904003     -1.496878     -1.317333
  H      -1.530933     -0.127181     -2.252922
  H       1.900747      1.599887     -0.283785
  O       1.286368      2.602228     -0.472305
  H       1.231807      3.016721      0.398555
23
Coordinates from ORCA-job neb_initial_path E   0.000000000000
  C      -1.581188      0.256915     -0.210052
  H      -0.181628      0.763161     -0.182888
  N      -1.545675     -0.477031      1.007415
  O      -0.641176     -1.208643      1.431300
  O      -2.492022     -0.496655      1.827480
  C       2.601759     -0.565280      0.270352
  O       2.602366      0.242916      1.275814
  O       2.311983     -0.305841     -0.916333
  C       2.931593     -1.997559      0.609530
  H       3.225815     -2.549707     -0.279353
  H       2.054361     -2.472936      1.048809
  H       3.716663     -2.018125      1.364557
  C      -2.379950      1.526962     -0.077148
  H      -1.982518      2.166987      0.711716
  H      -3.423639      1.298032      0.148136
  H      -2.346387      2.067570     -1.022253
  C      -1.750771     -0.603298     -1.425885
  H      -2.691181     -1.157502     -1.419817
  H      -0.946133     -1.334091     -1.502393
  H      -1.727805      0.032408     -2.311117
  H       1.948752      1.447357     -0.165659
  O       1.191224      2.435773     -0.498357
  H       1.105557      2.948586      0.316145
23
Coordinates from ORCA-job neb_initial_path E   0.000000000000
  C      -1.680739      0.287084     -0.247942
  H      -0.172601      0.887251     -0.253916
  N      -1.512469     -0.469938      0.912940
  O      -0.720652     -1.424524      1.074167
  O      -2.219370     -0.336647      1.948749
  C       2.639198     -0.657472      0.258866
  O       2.540913      0.225318      1.212519
  O       2.360765     -0.504250     -0.940040
  C       3.078979     -2.012741      0.742853
  H       3.400810     -2.626228     -0.093829
  H       2.247217     -2.485633      1.265428
  H       3.882107     -1.887722      1.468411
  C      -2.450179      1.560435     -0.029103
  H      -1.984817      2.191211      0.730035
  H      -3.470979      1.333579      0.289430
  H      -2.498231      2.115541     -0.965174
  C      -1.844630     -0.501164     -1.509351
  H      -2.732317     -1.138020     -1.494226
  H      -0.989467     -1.154122     -1.685384
  H      -1.921079      0.185933     -2.352084
  H       1.960910      1.286822     -0.042067
  O       1.096375      2.262128     -0.519742
  H       0.990256      2.863159      0.229460
23
Coordinates from ORCA-job neb_initial_path E   0.000000000000
  C      -1.778303      0.314593     -0.280233
  H      -0.160591      1.013065     -0.330007
  N      -1.478200     -0.471917      0.803979
  O      -0.807153     -1.546080      0.765426
  O      -1.891075     -0.222307      1.980037
  C       2.674132     -0.766240      0.251064
  O       2.481513      0.187978      1.136189
  O       2.403151     -0.726498     -0.949413
  C       3.224283     -2.014589      0.882090
  H       3.582323     -2.689279      0.110087
  H       2.431192     -2.475012      1.472747
  H       4.032189     -1.743500      1.561198
  C      -2.516940      1.586012      0.025161
  H      -1.985363      2.210587      0.745624
  H      -3.502636      1.359565      0.443128
  H      -2.653107      2.156684     -0.892984
  C      -1.939368     -0.390366     -1.589708
  H      -2.764444     -1.108512     -1.581315
  H      -1.039947     -0.946388     -1.858827
  H      -2.122865      0.341589     -2.376266
  H       1.934906      1.100911      0.085773
  O       0.997790      2.073015     -0.537956
  H       0.878513      2.756689      0.134207
23
Coordinates from ORCA-job neb_initial_path E   0.000000000000
  C      -1.876167      0.341068     -0.308198
  H      -0.139029      1.131614     -0.402244
  N      -1.453882     -0.461970      0.690933
  O      -0.890262     -1.596631      0.496447
  O      -1.591877     -0.145452      1.926228
  C       2.714863     -0.890601      0.251015
  O       2.427763      0.133629      1.041723
  O       2.448259     -0.970849     -0.939638
  C       3.378397     -1.999805      1.016744
  H       3.775418     -2.735655      0.323602
  H       2.633323     -2.451059      1.674587
  H       4.175505     -1.589949      1.636854
  C      -2.579558      1.606701      0.082819
  H      -1.982407      2.224602      0.756853
  H      -3.520263      1.384466      0.598929
  H      -2.805859      2.191608     -0.808499
  C      -2.035314     -0.272239     -1.663470
  H      -2.791354     -1.064705     -1.676871
  H      -1.103164     -0.721374     -2.012739
  H      -2.327604      0.493872     -2.381640
  H       1.875768      0.885568      0.212274
  O       0.895397      1.872276     -0.547873
  H       0.772049      2.634884      0.032166
23
Coordinates from ORCA-job neb_initial_path E   0.000000000000
  C      -1.974770      0.363875     -0.330644
  H      -0.098658      1.226799     -0.467298
  N      -1.434718     -0.441085      0.576509
  O      -0.969128     -1.602058      0.240125
  O      -1.351828     -0.084859      1.819071
  C       2.767283     -1.023383      0.267528
  O       2.374999      0.069881      0.920428
  O       2.509215     -1.226447     -0.903304
  C       3.536301     -1.972326      1.141731
  H       3.977000     -2.762313      0.539475
  H       2.852333     -2.411074      1.872000
  H       4.309787     -1.438792      1.694729
  C      -2.637770      1.622413      0.140830
  H      -1.975691      2.233313      0.759128
  H      -3.525444      1.410806      0.750489
  H      -2.953693      2.218968     -0.715259
  C      -2.134743     -0.148073     -1.728815
  H      -2.818898     -1.004445     -1.776614
  H      -1.185047     -0.488477     -2.149429
  H      -2.531536      0.639318     -2.369808
  H       1.811860      0.650387      0.331378
  O       0.778449      1.662055     -0.536496
  H       0.674697      2.505515     -0.075754
