38

 C 3.585199314 2.624980250 -1.253567121
 C 3.667929298 1.255422749 -1.017521133
 C 2.513525231 0.487917329 -0.834365190
 C 1.259666947 1.106074018 -0.886379282
 C 1.212765868 2.472698046 -1.119011182
 C 2.342911562 3.254750382 -1.307335852
 H 4.498582959 3.205582234 -1.398295887
 H 4.655836210 0.790299212 -0.966252428
 H 0.350946392 0.519205867 -0.748977246
 Cl -0.327942110 3.236714026 -1.175911738
 H 2.279798274 4.328153644 -1.488341165
 C 2.655311338 -0.969225576 -0.570881151
 C 2.253490432 -1.391705068 0.821622790
 H 2.406178096 -2.469372096 0.984817479
 H 1.201173983 -1.167428103 1.045429660
 H 2.864205566 -0.868006462 1.574074089
 N 2.128245437 -1.798926815 -1.612147590
 O 2.089515347 -3.021235409 -1.466272486
 O 1.795026731 -1.300267431 -2.688001856
 N 5.219411314 -1.612499494 -3.129261852
 C 6.181824973 -2.655039192 -3.591350521
 C 7.600314431 -2.072237750 -3.561998144
 O 7.668682808 -0.922783231 -4.388255011
 C 6.798925960 0.110158907 -3.960230652
 C 5.343713036 -0.375916186 -3.957776459
 H 4.674590722 0.410853875 -3.538322694
 H 4.998301172 -0.567142271 -4.999690744
 H 6.961704206 0.903625523 -4.713485321
 H 7.124122731 0.477814841 -2.970198714
 H 8.337803457 -2.759880840 -4.022139733
 H 7.931162782 -1.813253684 -2.539602310
 H 5.925734533 -3.004518333 -4.616166651
 H 4.001906939 -1.218436681 -0.561751918
 H 4.251661526 -1.967597368 -3.186142092
 H 6.108496648 -3.542111295 -2.921169398
 H 5.607598245 -2.052123729 -0.233558264
 H 5.439465115 -1.359688098 -1.816182602
 O 5.308113844 -1.243451367 -0.647533281
