23

 C 1.212335747 -0.856807727 -0.010937325
 H 2.653632078 -1.126614121 0.163115480
 N 0.672741791 -1.455610531 1.137225433
 O 0.470012128 -2.679931939 1.184272838
 O 0.474465613 -0.791203371 2.166733655
 C 6.522195070 -3.211636812 0.571922624
 O 5.782926847 -2.352232672 1.224340984
 O 6.117133912 -3.761791950 -0.443008433
 C 7.869497139 -3.477789047 1.155010054
 H 8.584694254 -3.804560435 0.380930762
 H 7.830996706 -4.281215704 1.910155488
 H 8.301163188 -2.596473432 1.650898896
 C 1.042181389 0.639783187 -0.060902805
 H 1.424819591 1.142216681 0.836786151
 H -0.017400389 0.919094731 -0.153300305
 H 1.558378765 1.075078422 -0.925776373
 C 0.877374739 -1.561327319 -1.300916686
 H -0.189189208 -1.467720239 -1.549438836
 H 1.111351238 -2.633072970 -1.268009874
 H 1.437210181 -1.131490648 -2.143100545
 H 4.825529322 -1.942433475 0.702418242
 O 3.842355108 -1.234812078 0.131434567
 H 4.162879377 -0.349454921 0.284655075
