25
Properties=species:S:1:pos:R:3 pbc="F F F"
C       -0.08605000      -0.46341000       0.17799000
H       -0.07163000      -0.91773000      -0.81574000
N       -0.17269000      -2.70545000       1.20686000
O       -0.60634000      -3.12794000       0.14742000
O       -0.16502000      -3.39455000       2.21888000
H       -0.48249000       1.27946000       1.35115000
C        0.37671000      -1.34040000       1.29515000
H        1.50921000      -1.41818000       1.28183000
H        0.13517000      -0.91747000       2.30647000
C       -0.45595000       0.79918000       0.38202000
H       -0.76132000       1.46427000      -0.41555000
C        6.69408000      -3.15063000       0.76359000
C        8.08913000      -3.20744000       0.67950000
C        8.79121000      -2.03261000       0.41527000
C        8.08581000      -0.84334000       0.24072000
C        6.68989000      -0.86978000       0.33821000
N        6.00582000      -2.00272000       0.59561000
H        6.09365000      -4.04736000       0.97126000
H        8.61154000      -4.15346000       0.81692000
H        8.60513000       0.09114000       0.03156000
H        6.08857000       0.03973000       0.20631000
H        9.88182000      -2.04542000       0.34581000
H        3.06721000      -3.43066000       0.84365000
H        3.99734000      -2.27534000       0.49713000
O        3.07347000      -2.56449000       0.42372000
