27
Coordinates from ORCA-job neb_NEB-CI_converged
  C   -2.08800302948393      0.74595886692681     -0.20260818204814
  C   -0.75136469432312      0.65653104934413      0.14395530962139
  C   0.12455317318613     -0.16685936541752     -0.57156432233651
  C   -0.36620208233707     -0.87778574069276     -1.67039795549939
  C   -1.70028911962513     -0.79717677280900     -2.03671649942951
  C   -2.54950804557949      0.00638372786499     -1.28397907925628
  H   -2.77019055365303      1.36475736693327      0.36126906999595
  H   -0.38027028478112      1.20886879826787      0.99509906022511
  H   0.29778516031042     -1.50556163316108     -2.24874345457589
  C   1.55047551951301     -0.33038957155857     -0.11887890459190
  H   1.55440250228163     -0.06047514139399      1.12042241949789
  C   2.13670677667245     -1.72158064517123     -0.26271210394514
  H   3.08975899266182     -1.78857477344694      0.25985308584923
  H   2.29847632006493     -2.01320435742300     -1.30309701583936
  H   1.44855520077494     -2.43434627979795      0.19389165146430
  N   2.41322458470704      0.69643726331615     -0.67016098031718
  O   3.60458840655993      0.43392373917441     -0.87720173567244
  O   1.96012360371553      1.83701708193344     -0.84155025101128
  O   0.93470000549475      2.43013105409183      3.78117558772173
  H   0.86392325224117      2.21194696829985      4.71625183010019
  H   -2.07763155986115     -1.34781545128767     -2.88312043547064
  N   -3.96740834355166      0.05629107835787     -1.62656355024941
  O   -4.36466504978858     -0.60539690070056     -2.57989686842337
  O   -4.70765794573792      0.75461103929597     -0.93894073864172
  H   0.80769511364763     -0.47188527429309      2.74426551951258
  H   1.14166058595317      1.56615483345429      3.31505948364139
  O   1.49656151093766      0.15203903989249      2.48488905967837
