27
Coordinates from ORCA-job neb_initial_path E   0.000000000000
  C      -2.256462      0.351953     -0.155207
  C      -0.935252      0.275340      0.258275
  C       0.044775     -0.235897     -0.591487
  C      -0.309377     -0.671445     -1.870534
  C      -1.622206     -0.595445     -2.302324
  C      -2.579629     -0.085017     -1.432696
  H      -3.022668      0.745899      0.494867
  H      -0.650080      0.614980      1.245899
  H       0.444937     -1.068561     -2.537570
  C       1.466484     -0.347840     -0.098157
  H       1.527067      0.103598      0.918170
  C       1.999370     -1.766899     -0.071116
  H       3.001971     -1.796180      0.351424
  H       2.017623     -2.218764     -1.063117
  H       1.340268     -2.358210      0.565642
  N       2.352373      0.566418     -0.924679
  O       3.439549      0.161423     -1.304313
  O       1.945638      1.703921     -1.123441
  O       1.326229      2.638937      4.344248
  H       1.709042      2.328279      5.171613
  H      -1.904789     -0.925551     -3.290176
  N      -3.971864     -0.005188     -1.879353
  O      -4.241435     -0.389531     -3.010980
  O      -4.806910      0.441689     -1.102095
  H       0.826905      0.024027      2.997524
  H       1.381873      1.829823      3.693945
  O       1.476568      0.678242      2.715638
27
Coordinates from ORCA-job neb_initial_path E   0.000000000000
  C      -2.199784      0.523112     -0.167604
  C      -0.864316      0.438264      0.179900
  C       0.099438     -0.199124     -0.600250
  C      -0.334825     -0.756446     -1.806224
  C      -1.661349     -0.692674     -2.188399
  C      -2.582532     -0.054421     -1.367028
  H      -2.927028      1.021417      0.455129
  H      -0.572053      0.932898      1.092252
  H       0.375038     -1.230347     -2.469182
  C       1.518852     -0.355571     -0.169467
  H       1.567905      0.026389      1.045391
  C       2.082024     -1.760662     -0.171440
  H       3.065208     -1.787509      0.295882
  H       2.183189     -2.176872     -1.173986
  H       1.403593     -2.394840      0.399402
  N       2.410029      0.624412     -0.860574
  O       3.539661      0.263503     -1.176878
  O       2.000080      1.775588     -1.000896
  O       1.090292      2.577495      4.106108
  H       1.383501      2.326430      4.988664
  H      -1.996631     -1.129180     -3.116164
  N      -3.985733      0.028708     -1.754053
  O      -4.310192     -0.486408     -2.818229
  O      -4.779956      0.598987     -1.012905
  H       0.788197     -0.232069      2.986747
  H       1.228563      1.719738      3.550196
  O       1.478830      0.399184      2.753608
27
Coordinates from ORCA-job neb_initial_path E   0.000000000000
  C      -2.133140      0.681557     -0.191170
  C      -0.785678      0.595274      0.095839
  C       0.150773     -0.160382     -0.615906
  C      -0.365571     -0.840506     -1.725017
  C      -1.703571     -0.783666     -2.058574
  C      -2.581317     -0.025968     -1.293411
  H      -2.820047      1.275853      0.391968
  H      -0.451193      1.233179      0.895008
  H       0.292617     -1.402504     -2.369989
  C       1.568517     -0.349196     -0.240387
  H       1.570843     -0.073842      1.167851
  C       2.160619     -1.740796     -0.274356
  H       3.122084     -1.769902      0.237162
  H       2.337852     -2.111907     -1.284731
  H       1.473390     -2.418489      0.231699
  N       2.465255      0.679664     -0.788387
  O       3.628648      0.357227     -1.044894
  O       2.057326      1.842386     -0.882255
  O       0.924914      2.501588      3.869339
  H       0.982432      2.300064      4.808673
  H      -2.088180     -1.317403     -2.913333
  N      -3.992280      0.058964     -1.627663
  O      -4.374100     -0.576516     -2.605746
  O      -4.743261      0.742811     -0.936490
  H       0.728377     -0.454672      2.949620
  H       1.127115      1.595432      3.436867
  O       1.447575      0.161750      2.768285
27
Coordinates from ORCA-job neb_initial_path E   0.000000000000
  C      -2.060287      0.819030     -0.219322
  C      -0.704125      0.737663      0.017470
  C       0.194969     -0.122356     -0.632577
  C      -0.394433     -0.912013     -1.631534
  C      -1.741165     -0.857131     -1.920285
  C      -2.573622      0.003601     -1.215038
  H      -2.710397      1.492727      0.317879
  H      -0.320870      1.468785      0.706616
  H       0.213123     -1.562825     -2.240472
  C       1.612047     -0.331114     -0.310001
  H       1.546246     -0.173755      1.275012
  C       2.226735     -1.710774     -0.371557
  H       3.167449     -1.745818      0.177202
  H       2.461343     -2.036424     -1.387048
  H       1.539053     -2.425944      0.078770
  N       2.513322      0.727091     -0.718857
  O       3.702032      0.433484     -0.921247
  O       2.111915      1.900595     -0.776026
  O       0.888504      2.417203      3.698542
  H       0.417349      2.235550      4.517935
  H      -2.168635     -1.471768     -2.696962
  N      -3.989657      0.087458     -1.504872
  O      -4.426181     -0.647479     -2.387948
  O      -4.700157      0.866634     -0.871356
  H       0.679275     -0.644397      2.904079
  H       1.105117      1.485674      3.356179
  O       1.411050     -0.033696      2.755416
27
Coordinates from ORCA-job neb_initial_path E   0.000000000000
  C      -2.002390      0.902606     -0.230417
  C      -0.641898      0.838415     -0.022667
  C       0.222014     -0.093408     -0.630976
  C      -0.411697     -0.950655     -1.550393
  C      -1.761353     -0.893206     -1.815267
  C      -2.563471      0.027642     -1.150519
  H      -2.632827      1.620169      0.271997
  H      -0.219952      1.609512      0.596773
  H       0.162726     -1.662848     -2.121080
  C       1.640463     -0.305146     -0.366324
  H       1.525905     -0.239711      1.381749
  C       2.265217     -1.677389     -0.447255
  H       3.189873     -1.717952      0.127456
  H       2.540478     -1.977931     -1.461678
  H       1.573321     -2.413627     -0.040139
  N       2.536091      0.768107     -0.658665
  O       3.739172      0.488782     -0.835979
  O       2.128621      1.947236     -0.675327
  O       0.922663      2.232515      3.821866
  H      -0.030777      2.363038      3.784914
  H      -2.213733     -1.553759     -2.538659
  N      -3.980922      0.106063     -1.413018
  O      -4.454547     -0.684000     -2.229580
  O      -4.668121      0.938501     -0.819755
  H       0.659734     -0.803970      2.868674
  H       1.078304      1.326765      3.418912
  O       1.397108     -0.195749      2.735359
27
Coordinates from ORCA-job neb_initial_path E   0.000000000000
  C      -1.921277      1.024566     -0.279897
  C      -0.556329      0.957995     -0.116674
  C       0.266010     -0.059699     -0.650949
  C      -0.428427     -1.008367     -1.433127
  C      -1.785103     -0.949738     -1.650068
  C      -2.542952      0.061097     -1.066262
  H      -2.516495      1.809266      0.161288
  H      -0.086437      1.770299      0.406368
  H       0.107088     -1.797486     -1.935967
  C       1.683054     -0.266230     -0.431410
  H       1.480078     -0.330962      1.471035
  C       2.323347     -1.626657     -0.544219
  H       3.226501     -1.680013      0.062020
  H       2.633718     -1.877559     -1.563132
  H       1.636731     -2.394251     -0.190191
  N       2.576411      0.813488     -0.571921
  O       3.798211      0.556204     -0.693145
  O       2.178556      2.001830     -0.543663
  O       0.634300      2.063360      3.738149
  H      -0.169980      2.354642      3.298594
  H      -2.276051     -1.679116     -2.275781
  N      -3.964275      0.136225     -1.280227
  O      -4.489729     -0.735005     -1.976333
  O      -4.612391      1.049645     -0.763699
  H       0.617133     -1.002333      2.793073
  H       0.848829      1.177580      3.342191
  O       1.339478     -0.368783      2.693949
27
Coordinates from ORCA-job neb_initial_path E   0.000000000000
  C      -1.835520      1.138081     -0.340481
  C      -0.467286      1.070089     -0.214446
  C       0.307556     -0.028253     -0.665743
  C      -0.436607     -1.053491     -1.302304
  C      -1.799432     -0.991835     -1.468201
  C      -2.512615      0.101146     -0.978781
  H      -2.394758      1.982947      0.031719
  H       0.040298      1.907586      0.226800
  H       0.067740     -1.907625     -1.724725
  C       1.724406     -0.222020     -0.494641
  H       1.431949     -0.425209      1.556235
  C       2.374433     -1.572070     -0.639186
  H       3.255183     -1.642918     -0.003026
  H       2.715311     -1.777106     -1.659444
  H       1.690777     -2.365192     -0.341086
  N       2.609726      0.849965     -0.478318
  O       3.846489      0.609553     -0.539813
  O       2.218874      2.045006     -0.396194
  O       0.331881      1.940883      3.518499
  H      -0.349519      2.209057      2.894470
  H      -2.325887     -1.781485     -1.982282
  N      -3.936880      0.173633     -1.140279
  O      -4.512005     -0.764379     -1.700339
  O      -4.545848      1.159354     -0.712613
  H       0.580961     -1.190188      2.708634
  H       0.640949      1.060378      3.202269
  O       1.279824     -0.525905      2.643278
27
Coordinates from ORCA-job neb_initial_path E   0.000000000000
  C      -1.751213      1.234497     -0.402736
  C      -0.380292      1.168381     -0.306004
  C       0.344258     -0.000583     -0.674465
  C      -0.434956     -1.084610     -1.172470
  C      -1.803107     -1.018105     -1.283400
  C      -2.473796      0.143603     -0.892552
  H      -2.273598      2.128303     -0.095915
  H       0.159352      2.015491      0.076580
  H       0.049525     -1.989918     -1.502040
  C       1.762252     -0.173667     -0.553445
  H       1.380332     -0.517061      1.647827
  C       2.416112     -1.515038     -0.730145
  H       3.271234     -1.606822     -0.062771
  H       2.796270     -1.678401     -1.744816
  H       1.725699     -2.323986     -0.499469
  N       2.627949      0.880017     -0.382516
  O       3.875911      0.652762     -0.383995
  O       2.227888      2.074517     -0.238657
  O       0.042823      1.826480      3.232719
  H      -0.524214      2.018584      2.477273
  H      -2.358742     -1.855227     -1.678616
  N      -3.899749      0.214343     -0.997765
  O      -4.518984     -0.770936     -1.416078
  O      -4.471887      1.258478     -0.662624
  H       0.550313     -1.366967      2.618594
  H       0.440627      0.956088      3.033288
  O       1.219991     -0.670222      2.594198
