29

 C 0.943708810 1.441645716 0.379799367
 C 1.510947187 0.788215960 -0.721091676
 C 1.198924538 -0.553727550 -0.968353792
 C 0.347433485 -1.232719677 -0.098223045
 C -0.187792836 -0.565337095 1.012715810
 C 0.092473453 0.778490835 1.266882893
 H 2.192333086 1.334718337 -1.392003948
 H 0.085470975 -2.287606734 -0.270775839
 H -0.343192664 1.297742945 2.135409864
 N -1.064018055 -1.278686935 1.917856309
 O -1.532417318 -0.684415128 2.876100403
 O -1.312314613 -2.455175049 1.695184346
 C 1.793471423 -1.221172905 -2.174883955
 H 2.988314985 -1.071903450 -2.157131625
 C 1.531871188 -2.713378899 -2.284574589
 H 2.016977296 -3.153546636 -3.170792343
 H 0.462988409 -2.959256788 -2.362826647
 H 1.933905249 -3.252368805 -1.412933355
 N 1.333491435 -0.549761021 -3.416752646
 O 1.606877815 -1.051418042 -4.496631971
 O 0.719148458 0.507574796 -3.340382426
 O 7.001178960 -0.621571719 -2.409135094
 H 7.359158008 -1.228413721 -1.788287418
 N 1.233883307 2.842314990 0.600393201
 O 0.769271952 3.392635884 1.588002906
 O 1.928316351 3.435389950 -0.211426847
 H 4.505927990 -0.307337854 -1.198854377
 H 5.906206261 -0.692908000 -2.246246518
 O 4.571138123 -0.776012811 -1.993757083
