28
Coordinates from ORCA-job /home/rudenko/mop_saddle_orca_4_serv/for_orca/CH2CHCH2NO2_picoline_from_lutidine/orca/orca_end/end
  C   2.41609798283033     -0.18442947660500     -2.51839380370772
  H   1.85465996805290     -0.81442705914483     -1.83748285359765
  N   3.56249039003940     -2.19100526146560     -3.28701307633105
  O   2.90459709189961     -2.93128247052992     -2.48319198996895
  O   4.41970646419149     -2.73115550801168     -4.06818405962343
  H   2.69852147466955      1.80906764680876     -3.20966821934235
  C   3.38930626496109     -0.85497180674611     -3.31889667041731
  H   3.97517650722908     -0.34298958579941     -4.06728600955230
  H   4.90635286256364     -0.57182707793670     -1.82757613514761
  C   2.16411218971640      1.13878559410543     -2.54508881194369
  H   1.40539282422286      1.57377369120849     -1.90820147444226
  C   6.12901507059001      1.80965678924528      1.53640740100592
  C   5.92899876202341      2.87055177984351      2.40261789728185
  C   4.78434108461259      3.64779412497582      2.20235948313283
  C   3.89706354085514      3.36188478046060      1.17351093322195
  C   4.15694265639822      2.29088716728280      0.34311296820839
  N   5.25620211191237      1.55466512249630      0.55075967060039
  H   6.97762248925923      1.14444608144075      1.60807206328248
  H   3.01040524044696      3.95810491063912      1.01546632464646
  H   3.52209246199593      1.98900553870802     -0.47871231693182
  C   6.91119282408992      3.16849882611770      3.49465846167634
  H   6.39328373490531      3.46724124658281      4.40627574054539
  H   7.56459944910244      3.99365649908391      3.20055963974056
  H   7.53593458687531      2.30226222626043      3.70781473381701
  H   4.58981893261759      4.48263497313141      2.86410418307481
  H   5.58542639113890     -1.43117063185685     -0.74238851014460
  O   5.62974296621706     -0.56540606271931     -1.16959307955119
  H   5.43410216658510      0.74605951242365     -0.08476000953257
