41
Properties=species:S:1:pos:R:3 pbc="F F F"
C        0.87151112      -0.17488912       0.77510758
C        0.84385694      -0.97882251      -0.36189199
C       -0.33828741      -1.13806422      -1.09715008
C       -1.49815957      -0.47621945      -0.68783130
C       -1.45573833       0.31948787       0.46122133
C       -0.27962518       0.48004691       1.20115933
H        1.80249474      -0.05826024       1.33492728
H        1.75485888      -1.48297611      -0.68488198
H       -2.42459176      -0.58880828      -1.26139593
H       -0.25859004       1.10727965       2.09758490
N       -2.66052910       0.97956954       0.90173224
O       -2.63996104       1.63695499       1.93488809
O       -3.68296536       0.86574363       0.23763163
C       -0.37085103      -2.02025875      -2.25674867
C       -0.23361389      -3.48693700      -2.03605718
H        0.44799944      -3.95793600      -2.76002205
H       -1.20290945      -4.00186668      -2.14086948
H        0.13650161      -3.71682407      -1.02818828
N       -0.63140588      -1.54904508      -3.47619545
O       -0.72286208      -2.31681428      -4.47322578
O       -0.74098541      -0.31142762      -3.69234984
H        1.74230123      -1.91645491      -2.96236352
C        3.50956079      -5.43522582       0.55260369
C        4.50676501      -6.33734053      -0.03651620
C        5.43941322      -5.63668998      -1.03304216
C        4.64836784      -4.71942394      -1.96088219
N        3.94464160      -3.66508573      -1.13625364
C        2.93762456      -4.30761456      -0.20466578
H        3.11780532      -5.64370172       1.53384011
H        5.11222496      -6.83819897       0.75197763
H        3.97447038      -7.18084245      -0.54580279
H        5.99966822      -6.38623115      -1.62970712
H        6.22119866      -5.06647985      -0.48965933
H        5.32060560      -4.20937103      -2.69137369
H        3.89704670      -5.29078436      -2.55348400
H        4.64913577      -3.13428643      -0.57830771
H        2.54182888      -3.51499542       0.48125493
H        2.06391106      -4.67696725      -0.81051909
H        3.45797848      -2.97233159      -1.77461712
H        3.04826711      -1.08447468      -2.96841064
O        2.72041473      -1.99679917      -2.93921858
