40
Properties=species:S:1:pos:R:3 pbc="F F F"
C        1.93302943       2.69558971       2.30419449
C        1.92498049       1.30711882       2.19404445
C        0.75963580       0.64046276       1.80689833
C       -0.40357970       1.37469617       1.55438092
C       -0.39383547       2.76182752       1.67011574
C        0.77575207       3.42418850       2.03826533
H        2.84887248       3.21038060       2.59549964
H        2.83296939       0.75233239       2.41855969
H       -1.31757877       0.85628865       1.26647499
H        0.78650398       4.51022482       2.11822162
C        0.74965595      -0.82001523       1.68843368
C        0.36988281      -1.60911040       2.89619408
H        0.69156467      -2.66002930       2.82974017
H       -0.72208608      -1.62309852       3.04357525
H        0.80883047      -1.18702870       3.81091604
N        0.62088504      -1.39360736       0.45730318
O        0.83420203      -0.72991363      -0.57872019
O        0.39363096      -2.61439304       0.33521702
N        4.12165941      -1.19183441       5.01599173
C        4.43239493      -2.55182914       5.52971729
C        5.10509981      -2.49255748       6.91027917
C        6.36764220      -1.62709426       6.84421931
C        5.98055100      -0.22173166       6.37354036
C        5.31030054      -0.29860599       4.99387757
H        4.95268490       0.71161424       4.68981647
H        6.05773017      -0.61652925       4.23450767
H        6.87001760       0.43249884       6.32100102
H        5.29508460       0.24758313       7.10442463
H        5.35101952      -3.51597184       7.24942266
H        4.40236978      -2.07872263       7.65798790
H        5.07537866      -3.12589080       4.82753938
H        2.67512898      -1.14524735       1.74033452
H        3.77425993      -1.27935101       4.05516091
H        3.46405606      -3.09836276       5.60242962
H        6.86538923      -1.58578922       7.83008205
H        7.10393167      -2.07473287       6.14968188
H       -1.30306810       3.33173570       1.47305842
H        4.15246098      -2.12580727       1.36750487
H        4.28219616      -0.58988891       1.09977193
O        3.95895602      -1.23651410       1.81214672
