40
Properties=species:S:1:pos:R:3 pbc="F F F"
C        1.93298033       2.69557287       2.30428027
C        1.92529203       1.30710113       2.19421330
C        0.75985991       0.64019465       1.80691728
C       -0.40351540       1.37453102       1.55426925
C       -0.39383167       2.76185281       1.67002104
C        0.77586292       3.42439930       2.03843371
H        2.84884456       3.21048151       2.59566687
H        2.83312405       0.75229517       2.41882591
H       -1.31768095       0.85608990       1.26622662
H        0.78641171       4.51045182       2.11835023
C        0.74965595      -0.82001523       1.68843368
C        0.37050742      -1.60890308       2.89623468
H        0.69166810      -2.65984370       2.82996242
H       -0.72186362      -1.62291119       3.04367862
H        0.80897434      -1.18682822       3.81087685
N        0.62127831      -1.39211756       0.46004212
O        0.83400580      -0.72934157      -0.57920463
O        0.39391653      -2.61485779       0.33466343
N        4.12196528      -1.19179062       5.01571388
C        4.43252371      -2.55167464       5.52954747
C        5.10500756      -2.49255409       6.91020212
C        6.36749594      -1.62711718       6.84441769
C        5.98061515      -0.22174953       6.37369532
C        5.31053129      -0.29857948       4.99395432
H        4.95283418       0.71146647       4.68961374
H        6.05771323      -0.61672123       4.23464342
H        6.87002739       0.43252207       6.32103077
H        5.29496400       0.24758834       7.10435951
H        5.35090602      -3.51589887       7.24945427
H        4.40230411      -2.07875581       7.65786623
H        5.07555342      -3.12577456       4.82761995
H        2.67512898      -1.14599907       1.74009837
H        3.77446145      -1.27908006       4.05504965
H        3.46437985      -3.09843573       5.60222495
H        6.86516148      -1.58570987       7.83023400
H        7.10389368      -2.07464556       6.15004755
H       -1.30307620       3.33170356       1.47288897
H        4.15229574      -2.12626546       1.36743902
H        4.28233804      -0.58996433       1.09953993
O        3.95895602      -1.23651410       1.81214672
