29
Properties=species:S:1:pos:R:3 pbc="F F F"
C        0.45717925       1.28750790       0.33156407
C        0.90181300       0.68719945      -0.85002342
C        0.49432624      -0.61754556      -1.17225623
C       -0.35586147      -1.29365798      -0.28389377
C       -0.77855530      -0.67280980       0.89403997
C       -0.38577156       0.62687533       1.22469219
H        1.57825820       1.23417398      -1.52269686
H       -0.69477640      -2.31331782      -0.51759062
H       -0.72501206       1.10693626       2.15400954
N       -1.64891964      -1.38989118       1.79987394
O       -2.07910328      -0.81398568       2.79013680
O       -1.93391257      -2.55468157       1.55629005
C        0.95309523      -1.28657897      -2.36919673
H        4.16146589      -1.23585432      -2.34138475
C        1.13122116      -2.76663165      -2.33398091
H        1.79298466      -3.13409152      -3.13226242
H        0.17365008      -3.29663450      -2.45175577
H        1.57490872      -3.09708771      -1.38178410
N        1.21254521      -0.62105711      -3.50313631
O        1.63966815      -1.21033323      -4.52969289
O        1.02680164       0.62138285      -3.59828947
O        8.02515616      -0.71000223      -2.93318549
H        8.48078168      -1.08830693      -2.17193386
N        0.89025882       2.63350949       0.64313631
O        0.51483239       3.15088538       1.68587317
O        1.61903732       3.22074297      -0.14444034
H        5.55865427      -1.33443687      -1.39605390
H        7.09631559      -0.89625685      -2.77869254
O        5.44980078      -1.23569003      -2.34553690
