10

C          0.56394       -0.78932        0.40612
H          0.50232       -1.71486       -0.14036
H          0.65864        0.10677       -0.18496
H          2.40252       -0.72932        0.31126
N          0.24849       -0.73365        1.69824
O          0.19979        0.36000        2.31543
O          0.00763       -1.77481        2.35840
H          3.09773       -2.16866        0.18438
O          3.25667       -1.26342        0.64883
H          3.99311       -0.84927        0.06192
