40
Properties=species:S:1:pos:R:3 pbc="F F F"
C        2.63409165       2.12110950       2.33616601
C        2.55695826       0.77658377       1.99129023
C        1.68509272       0.33406081       0.98121911
C        0.87789559       1.27833229       0.32819282
C        0.98815279       2.60869388       0.69443493
C        1.84462068       3.06809874       1.68105738
H        3.32006917       2.44081323       3.12335843
H        3.18854874       0.05728528       2.51373323
H        0.18327073       0.95828784      -0.45085980
Cl      -0.00250407       3.75399123      -0.12853805
H        1.91070264       4.12181353       1.94711269
C        1.62526812      -1.07605444       0.64510876
C        1.61696217      -2.08875194       1.74224135
H        1.93876863      -3.08525278       1.40303308
H        0.60483134      -2.21161437       2.16007232
H        2.27364865      -1.81314290       2.57851375
N        1.38127941      -1.49608131      -0.61410219
O        1.30554026      -2.71808961      -0.88829434
O        1.29176125      -0.68641949      -1.56905510
N        5.37557864      -3.82686461      -0.57125494
C        4.48435119      -4.17609129      -1.74318001
C        4.84201539      -5.56181766      -2.28108438
C        6.31708904      -5.61494971      -2.69208087
C        7.21577438      -5.21475483      -1.51746870
C        6.82810005      -3.83242643      -0.99330128
H        3.61616714      -1.32831929       0.29227127
H        3.42123803      -4.13964541      -1.40306269
H        4.60273435      -3.40076750      -2.53509865
H        4.19176467      -5.80641671      -3.14676759
H        4.62527978      -6.34363867      -1.52500588
H        6.58004825      -6.63226894      -3.04112930
H        6.50133211      -4.95026312      -3.55935391
H        8.28076053      -5.21008873      -1.82706404
H        7.15718629      -5.97144254      -0.70906994
H        7.45148086      -3.54789794      -0.11412729
H        6.98828791      -3.04903226      -1.76940480
H        5.23600836      -4.51762528       0.19719233
H        4.97321407      -1.27012168       1.22613813
H        5.11403178      -2.85750357      -0.19451452
O        4.78049580      -1.35762514       0.28277620
