25

C          0.36894       -0.43277        0.20737
H          0.54519       -1.06845       -0.66761
N          0.62776       -2.39637        1.61569
O          0.74669       -3.15283        0.61942
O          0.66464       -2.93534        2.75468
H         -0.12627        1.52723        0.89504
C          0.47834       -1.07441        1.49426
H          2.48613       -0.52903        1.93166
H          0.35960       -0.48035        2.39730
C          0.05425        0.86124        0.06863
H         -0.03835        1.35052       -0.88500
C          5.92780        0.72768        3.84391
C          6.97708        1.51310        4.31306
C          6.93135        2.89621        4.13772
C          5.82919        3.46776        3.50098
C          4.79849        2.64976        3.04533
N          4.86324        1.30263        3.22136
H          5.91836       -0.37211        3.95775
H          7.82909        1.03899        4.81184
H          5.76731        4.55086        3.35430
H          3.90573        3.05397        2.53483
H          7.75317        3.52652        4.49530
H          3.70427       -1.35275        2.41022
H          4.08928        0.67876        2.83334
O          3.48181       -0.52528        1.95024
