38
Coordinates from ORCA-job neb
  C   -1.60748908712598      2.46889832920335      0.98802391584727
  C   -1.67987565934061      1.08289920424795      1.03116613436651
  C   -1.89323481857830      0.33686909310954     -0.13252861975857
  C   -2.03964705377618      1.01827809865819     -1.34282939597987
  C   -1.95254777281134      2.40172004891800     -1.36684632529432
  C   -1.73652551564142      3.14870330857121     -0.21784144324809
  H   -1.43336275215403      3.02756275732301      1.89870063634978
  H   -1.55417777833461      0.57092811380634      1.97552620092019
  H   -2.20798409404026      0.48211028051299     -2.26456074791487
  Cl  -2.12388407403339      3.23072251263014     -2.90497592704420
  H   -1.66770072087373      4.22637449772795     -0.26499357124809
  C   -1.99904053574139     -1.15439287683306     -0.00408194013424
  C   -3.24577248414280     -1.64583031573057      0.70691524295441
  H   -3.16211309419585     -2.69992777712148      0.96728384475086
  H   -4.14349308026949     -1.51010068964111      0.09700681107758
  H   -3.36942799055206     -1.07567960745826      1.62681112376122
  N   -1.70629706955887     -1.88644274099001     -1.20138252039261
  O   -2.31413690852922     -2.93574408510913     -1.44085039447453
  O   -0.76479616675040     -1.51235908556460     -1.93393454281903
  N   1.50916377215414     -0.42837258527161     -0.43681421704396
  C   2.72999754054064     -1.20748985199217     -0.78311555058310
  C   3.76429567498960     -1.02395755617530      0.31264352168934
  O   4.06566005129725      0.35462199341257      0.51172017362325
  C   2.90219664173447      1.08370226237817      0.89545700737474
  C   1.82622121897604      1.00146797913830     -0.17065094640235
  H   0.91523991509053      1.49795597399701      0.15752821876983
  H   2.16823776766280      1.45257035777485     -1.10228774713146
  H   3.20449314998996      2.12010011034750      1.03533080744022
  H   2.51897867400429      0.69523615817212      1.84720411472545
  H   4.69240945742180     -1.51784902969684      0.02987631325688
  H   3.40106026142544     -1.46319176211355      1.25008981654872
  H   3.10853431537283     -0.84457088311794     -1.73867939408761
  H   -0.96062867706775     -1.46819425676418      0.73616136487078
  H   0.81518758442757     -0.50992314171444     -1.18716492346984
  H   2.44655447499620     -2.25461077445992     -0.88013261237710
  H   0.34175929572576     -2.55392405721955      1.42916007525286
  H   1.01068444522306     -0.89873461298880      0.42311961221424
  O   0.14146109248531     -1.60942538996667      1.45394588360970
