31
Properties=species:S:1:pos:R:3 pbc="F F F"
C       -1.15220295      -0.24104012       0.10911180
H       -2.24063887      -0.16734476       0.17506357
N       -1.55110263      -2.63047950       0.62325995
O       -2.71943137      -2.35622151       0.84325754
O       -1.17059750      -3.78667942       0.51241249
H        0.68154370       0.75281474      -0.36611264
C       -0.54994094      -1.55127166       0.50605735
H        0.24955772      -1.87384416      -0.21400007
H       -0.03152867      -1.45813276       1.50520472
C       -0.39720640       0.78056468      -0.28980909
H       -0.80483662       1.74149497      -0.57421800
C        5.75176153      -2.96092184       0.89319967
C        7.08124469      -3.13201042       0.48530363
C        7.75400924      -2.02611885      -0.05889677
C        7.03926386      -0.83943747      -0.24740341
C        5.69889979      -0.77334731       0.14353512
N        5.06814227      -1.81228960       0.72459612
H        5.20487495      -3.78099627       1.38104343
H        7.51745081       0.03155048      -0.69443005
H        5.10074953       0.13601307      -0.00081829
C        7.69068574      -4.47863114       0.61944382
H        8.78850855      -4.45941085       0.66666737
H        7.42235862      -5.11409505      -0.24368622
H        7.34397606      -5.01016914       1.51988100
C        9.19776284      -2.08970967      -0.40057836
H        9.59716218      -1.13633235      -0.77739544
H        9.41418383      -2.85166202      -1.16719929
H        9.80354370      -2.35721804       0.48367222
H        3.15832134      -3.25719303       0.91449781
O        2.91308287      -3.70767343       0.09565486
H        3.48260559      -3.29508743      -0.56449695
