40
XYZ file generated by gabedit : coordinates in Angstrom
C          0.8998600000          3.3039700000          1.9639400000
C          1.4205400000          2.0113700000          1.9008900000
C          0.5655100000          0.9129700000          1.7957600000
C         -0.8178800000          1.1011000000          1.7493800000
C         -1.3024200000          2.3983300000          1.8176100000
C         -0.4781300000          3.5101500000          1.9248300000
H          1.5757500000          4.1599200000          2.0405000000
H          2.5038700000          1.8680800000          1.9265800000
H         -1.4920300000          0.2444300000          1.6536900000
H         -0.8861700000          4.5225200000          1.9745400000
C          1.1482400000         -0.4738700000          1.7347800000
C          0.5268100000         -1.4071400000          2.7664600000
H          1.0170400000         -2.3918200000          2.7870600000
H         -0.5465800000         -1.5796300000          2.5989600000
H          0.6246700000         -0.9842200000          3.7804800000
N          0.9041500000         -1.0283700000          0.3577900000
O          1.8730500000         -1.3681800000         -0.3033200000
O         -0.2380100000         -1.1092700000         -0.0605300000
N          5.0771200000          1.2757400000          4.6806600000
C          5.7061500000         -0.0667000000          4.5781200000
C          6.8597900000         -0.1966400000          5.5858200000
C          7.8979500000          0.9003000000          5.3243400000
C          7.2253700000          2.2733300000          5.4346000000
C          6.0604000000          2.3624100000          4.4355700000
H          5.5255700000          3.3287600000          4.5558800000
H          6.4561900000          2.3413000000          3.3963200000
H          7.9524800000          3.0816600000          5.2336100000
H          6.8596900000          2.4380700000          6.4657000000
H          7.3199600000         -1.1983000000          5.5024900000
H          6.4760400000         -0.1202900000          6.6205900000
H          6.0806900000         -0.2766100000          3.5517900000
H          2.2695500000         -0.4443500000          1.8848300000
H          4.3264900000          1.3445200000          3.9863900000
H          4.9205500000         -0.8214900000          4.7948800000
H          8.7412900000          0.8192600000          6.0349600000
H          8.3417500000          0.7729200000          4.3172300000
H         -2.0716510000          2.7064900000          1.3288210000
H          4.1620200000          1.0747760000          2.9268100000
H          3.8705470000         -0.0529350000          2.2620680000
O          3.5456430000          0.7423110000          2.3218460000
 
