41
Coordinates from ORCA-job /home/rudenko/mop_saddle_orca_4_serv/for_orca/m-o2nc6h4chno2ch3_piperidine/orca/orca_end/end
  C   0.50122871573892     -1.81108862022055      1.20871203178397
  C   -0.15382015280322     -2.46013135339594      0.18214672645094
  C   -0.59940823541405     -1.80585774766900     -0.97785543217292
  C   -0.35819160820559     -0.43525924879810     -1.02638249498790
  C   0.30221220645395      0.19969584433117      0.00421009440942
  C   0.75460189707722     -0.45581906349576      1.13581627771416
  H   0.81285927556787     -2.40645691219696      2.10612415444602
  H   -0.33770454930878     -3.52067281803025      0.29767131556806
  H   -0.67011055756161      0.14076313118877     -1.89036727980485
  H   1.25608924772004      0.06533110624999      1.92422862308314
  N   0.53516502248863      1.64562899938822     -0.10864854428246
  O   1.15766244373474      2.20770818256831      0.78476602940752
  O   0.10109758953753      2.24741496194697     -1.09285895563512
  C   -1.23540539429925     -2.59657283428716     -2.02722031356002
  C   -1.28494971861350     -4.09352724932701     -1.89797789394699
  H   -0.28391107252986     -4.49854235373591     -1.70833301597990
  H   -1.65860340431180     -4.53932078455096     -2.81480689019842
  H   -1.92212710751291     -4.41997878419335     -1.07195118273642
  N   -1.90238054463508     -2.04281759966206     -3.08756588060449
  O   -2.53958624188293     -2.77891039169221     -3.94951340747930
  O   -1.93063344211606     -0.77681389121002     -3.25967415159722
  H   0.69281368283896     -2.51822795572201     -3.03771480834911
  C   3.71251025814692     -5.24183669427592      0.39801707879631
  C   5.13339446330824     -5.21764351879780      0.00512001329136
  C   5.55067905525092     -3.85294993606389     -0.56893061556417
  C   4.58357893496018     -3.40148004583012     -1.63076413982972
  N   3.18656443939840     -3.33849739872726     -1.06128402604621
  C   2.71666660554784     -4.65830046156108     -0.50871377443244
  H   3.34876632945158     -5.86982826825457      1.20252832569460
  H   5.74532444205688     -5.47480697888343      0.85106173415535
  H   5.31419336478623     -5.97645080866193     -0.76544133635050
  H   6.55072040745725     -3.89689562221595     -1.02419805211716
  H   5.58338166321952     -3.10759727637629      0.24313581400107
  H   4.82932839139342     -2.40761280916404     -2.00773721774903
  H   4.55051785240652     -4.10765263569831     -2.47758192731267
  H   3.14998099296567     -2.62311978661561     -0.32359857199569
  H   1.76881223369617     -4.48526548829238     -0.01261480854047
  H   2.53678614475646     -5.29017740608198     -1.38920774181515
  H   2.53818693944192     -3.03746477040433     -1.81512304372819
  H   1.88931136924375     -1.66610868965325     -3.53475743026839
  O   1.64410862054865     -2.57622780192737     -3.28043702171676
