17
Coordinates from ORCA-job /home/rudenko/mop_saddle_orca_4_serv/for_orca/CH3NO2_ch2clcoo_near_freez/orca/orca_end/end
  C   0.78367023314372     -0.47502475615799      0.27485835090580
  H   0.91543488454144     -1.50603373740878     -0.00955919533111
  H   2.37083878553073     -0.30806691973250      1.60091283926892
  H   0.12950224771446     -0.14681023776362      1.06580802888758
  N   1.30811814276163      0.45559218514233     -0.51822170859425
  O   1.13570116812690      1.70271586700648     -0.27252024829614
  O   2.02581739088726      0.12646747564861     -1.52923640140470
  C   5.08518392787696      0.12597616151737     -0.81335051707147
  O   5.65692084878523     -0.10043199551414     -1.85802383791722
  O   4.84866151460088     -0.84018473017750      0.05899309762583
  C   4.64219918334031      1.52932047841562     -0.43634151780229
  Cl  5.78501144467801      2.18824681072954      0.81250091304509
  H   3.64686514624128      1.55899317678298     -0.00777057524693
  H   4.71039316087662      2.17734090739906     -1.30207876720406
  H   3.26881231221243     -0.56415371235879      2.84297047397064
  O   3.24641036870099     -0.10186468085819      1.99740438443691
  H   4.29416419998103     -0.54638180267051      0.84352826072739
