17
Properties=species:S:1:pos:R:3 pbc="F F F"
C        0.57973994      -0.76362469       0.69813387
H        1.17293621      -1.12859217      -0.16894498
H        0.73605111       0.33785492       0.76576871
H        0.97374709      -1.23324771       1.62231330
N       -0.83995426      -1.03657934       0.52491079
O       -1.50837471      -1.35701815       1.49631575
O       -1.33425465      -0.91971890      -0.58774774
C        5.69815585       0.38047125       0.14629882
O        5.72489782       0.30285292      -1.09626280
O        5.79523150      -0.59284346       0.91121640
C        5.55624779       1.78459916       0.72491847
Cl       6.07210729       1.79993530       2.42551792
H        4.50299831       2.11974537       0.69821107
H        6.18176326       2.51574147       0.18721436
H        2.67468839       0.61101640       1.61738584
O        3.03161126       0.33785492       0.76576871
H        3.59715137      -0.41810632       0.97617468
