25
Properties=species:S:1:pos:R:3 pbc="F F F"
C        1.48206973       3.06017029       2.06266066
C        1.76397441       1.70043558       1.94145670
C        0.73078421       0.77185313       1.79765051
C       -0.60127891       1.21088807       1.77668525
C       -0.84251693       2.56894460       1.89901456
C        0.16349341       3.51315421       2.04191804
H        2.29753387       3.77719518       2.17280799
H        2.80093226       1.35913812       1.95643477
H       -1.41524777       0.49213286       1.66686342
Cl      -2.47865714       3.11114116       1.86839305
H       -0.05717937       4.57609162       2.13571193
C        1.01621933      -0.66195202       1.68700018
C        0.81659667      -1.48105128       2.92016336
H        1.26362428      -2.48224659       2.83834909
H       -0.25651429      -1.63207273       3.12936995
H        1.24645716      -0.99578824       3.80548356
N        0.91588659      -1.25103385       0.47919347
O        0.93430558      -2.49858761       0.34800985
O        0.87564858      -0.56589643      -0.57087772
H        2.91744403      -0.77541244       1.82425797
O        6.58085166      -0.73873238       2.94746974
H        7.12510393      -0.41325492       2.22391182
H        5.68227082      -0.76146560       2.58005481
H        4.30943368      -1.23738709       0.96987580
O        4.15747733      -0.80661208       1.81138406