7

C         -2.25362        1.31839        0.34026
H         -0.96268        1.31507        0.33038
H         -2.57345        0.42623       -0.16807
H         -2.57336        2.20434       -0.17842
H         -2.56221        1.32310        1.37031
O          1.27251        1.18053       -0.01648
H          1.68822        1.48627        0.80081
