28

 C 0.497842007 0.234988975 0.174763464
 H -0.179990717 -0.188230640 0.923509586
 N 1.158330450 -2.070795127 -0.252118377
 O 0.622394003 -2.414533211 0.806599162
 O 1.581104735 -2.944876250 -1.018034723
 H 1.212121142 2.020278180 -0.747918077
 C 1.318321721 -0.715702145 -0.576174154
 H 1.460157087 -0.515759015 -1.651441371
 H 2.683800835 -0.292854762 -0.362708420
 C 0.566481929 1.553963486 -0.022256838
 H -0.019310004 2.266832496 0.534161075
 C 6.867623533 1.402563207 -0.097106427
 C 7.909963615 2.338778012 -0.013694086
 C 7.581274594 3.697470310 -0.016157929
 C 6.245258186 4.079948096 -0.105983355
 C 5.260631729 3.094494649 -0.191373537
 N 5.575410552 1.781879603 -0.183833123
 H 7.071303766 0.321632812 -0.097586544
 H 5.966848911 5.135710741 -0.108924850
 H 4.194537349 3.350779872 -0.272904720
 C 9.321631502 1.891261319 0.066885036
 H 10.011319193 2.697918785 0.360309057
 H 9.680058134 1.512846551 -0.905758723
 H 9.465675974 1.076341493 0.794394750
 H 8.368330309 4.454100752 0.053080846
 H 4.332938061 -0.840683137 -0.141927959
 O 3.899632070 -0.114582466 -0.611770140
 H 4.500991272 0.787994957 -0.318931996
