40
Coordinates from ORCA-job /home/rudenko/mop_saddle_orca_4_serv/for_orca/c6h5chno2ch3_piperidine/orca/orca_end/end
  C   2.57774082077227      2.51069464673415      2.28913838886486
  C   2.52247445564293      1.15402208106028      1.99253291203148
  C   1.41747803858849      0.39188876239388      2.36829243430678
  C   0.35953135573005      1.00698892982919      3.03694427372185
  C   0.41184599681867      2.36505471776886      3.33040190562629
  C   1.52112574553102      3.11931155576096      2.95921541828349
  H   3.44585771420749      3.08998349543885      2.00122227366268
  H   3.34637741324000      0.67770072173912      1.47709604659955
  H   -0.50780700453885      0.43135243408176      3.33157695550506
  H   1.56206811400604      4.17572146930623      3.19313391692924
  C   1.39659541803229     -1.08360588090760      2.03821357081780
  C   0.90869831617321     -1.99761707541585      3.14415439463487
  H   0.93002312837084     -3.03778365259523      2.81799242371313
  H   -0.10004287017642     -1.74928439832490      3.46622505208882
  H   1.59234944617256     -1.87880097835759      3.98346574723772
  N   0.51852629704576     -1.24912913858311      0.78776913963047
  O   1.07124615657816     -1.15542855796390     -0.29699893388601
  O   -0.67836947844030     -1.43180569790332      0.93061414674456
  N   4.27424598778136     -1.22070127710489      4.00125491860814
  C   4.48003675740834     -2.38752145646820      4.85437524050884
  C   4.07055155057680     -2.06210794253943      6.28832857234966
  C   4.83272448418500     -0.83731027718120      6.80264256208561
  C   4.69697496021334      0.34014227201953      5.83301482320663
  C   5.08530535415335     -0.08118319846733      4.41874802363487
  H   4.92152912378674      0.73790589280033      3.71599951216734
  H   6.16435859048002     -0.31848870990286      4.40285886508455
  H   5.32190536547440      1.17654351888720      6.15701492483077
  H   3.65948704094054      0.69006350141468      5.82274440492258
  H   4.25415046948301     -2.92626851749269      6.93216374454526
  H   2.99473193344921     -1.85964785440835      6.31116131069990
  H   5.53473341089818     -2.71660004679886      4.85243581625658
  H   2.38005487795633     -1.38503727461544      1.69039485700585
  H   4.46049768239592     -1.45521942224340      3.03189096765237
  H   3.88249390518886     -3.21372530285775      4.46238861961304
  H   4.47944827019929     -0.55675221865221      7.79820675290487
  H   5.89356802873599     -1.09434000987263      6.90358856911552
  H   -0.41334573895493      2.83330595152777      3.85195863709502
  H   4.95350946884585     -2.86222603659217      0.86005686331601
  H   5.15229016061127     -1.37539253063224      0.55419027622885
  O   4.52393004243619     -2.00064159488158      0.93721722165435
