39
Properties=species:S:1:pos:R:3 pbc="F F F"
C        2.06951292       2.71720116       1.49360747
C        2.10745727       1.32842327       1.59533308
C        1.00731022       0.56681049       1.18482382
C       -0.12621219       1.21450026       0.67787975
C       -0.16075063       2.60299473       0.58426570
C        0.93836936       3.35622920       0.98993014
H        2.93178852       3.30491145       1.80555382
H        2.99226856       0.84247336       2.00122561
H       -0.98393211       0.62459515       0.35539639
H        0.91417192       4.44169945       0.91331497
C        1.02530900      -0.88522142       1.31703175
C        1.22120002      -1.46786399       2.67457552
H        1.54963952      -2.51741965       2.64238192
H        0.28359571      -1.44574143       3.25334819
H        1.96709478      -0.91078510       3.25778013
N        0.67783388      -1.66930475       0.29501958
O        0.46955225      -1.19919246      -0.85656423
O        0.59797027      -2.92380446       0.41795520
N        5.14271660      -2.43688360       4.02254555
C        4.47700068      -3.60100573       4.65241346
C        4.67010059      -3.52057876       6.18320046
N        6.11707955      -3.50749652       6.51665377
C        6.80060412      -2.37529829       5.84151027
C        6.59459181      -2.46523079       4.31281061
H        7.07240279      -1.59431186       3.81498315
H        7.09312529      -3.37500469       3.91522246
H        7.88432447      -2.43705454       6.07953629
H        6.44176634      -1.38834662       6.20645637
H        4.21549941      -4.41189574       6.66812704
H        4.14066138      -2.62617073       6.57681957
H        4.86166746      -4.57155649       4.27215285
H        3.29079928      -1.31532570       0.75462441
H        4.97290222      -2.42698234       3.01548193
H        3.39335486      -3.55666569       4.40629745
H        6.23210683      -3.41480819       7.53570345
H        4.67355670      -2.05637698       0.50217710
H        4.65939933      -0.49488676       0.76894319
O        4.23904583      -1.36627221       1.14793993
H       -1.05044447       3.10094453       0.19614331
