22
XYZ file generated by gabedit : coordinates in Angstrom
C         -0.8371670000          1.0698960000         -0.0670790000
C          0.4990380000          1.1226060000          0.3299750000
C          1.2560220000         -0.0481420000          0.3649840000
C          0.6879360000         -1.2637960000         -0.0059830000
C         -0.6440750000         -1.3114430000         -0.4186390000
C         -1.4049870000         -0.1442620000         -0.4477990000
H         -1.4468680000          1.9721960000         -0.0776990000
C          1.1602220000          2.4374460000          0.7249920000
F          2.2916600000          0.0104040000          0.6985770000
H          1.2853900000         -2.1729680000          0.0255120000
H         -1.0971280000         -2.2568500000         -0.7107960000
H         -2.4471870000         -0.1803760000         -0.7624030000
O          2.1118390000          2.2703440000          1.6452490000
C          0.3927010000          3.1458460000          1.1071290000
O          0.0012880000          6.8387360000          2.2689510000
H         -0.1877540000          6.2971710000          3.0446660000
H          0.9278280000          7.0778990000          2.3773310000
O          3.2381600000          8.1503340000          3.0978040000
H          3.5602560000          8.9896840000          3.4703150000
H         -0.4439260000          2.5468100000          1.6826740000
H         -0.0226010000          3.8905300000          0.2928740000
H          0.9165750000          3.8693460000          1.8766380000
 
