17
Properties=species:S:1:pos:R:3 pbc="F F F"
C        0.57973994      -0.76362469       0.69813387
H        1.13005664      -1.62874317       0.37332772
H        2.13605111       0.41964108       0.39914651
H        0.57113910      -0.57598585       1.75695529
N       -0.18467537      -0.07485623      -0.13160472
O       -0.87313634       0.90578614       0.26550283
O       -0.22829089      -0.33939477      -1.36455614
C        5.99976980       0.31984611      -0.60146205
O        7.08721268      -0.02202036      -1.01274782
O        5.01303714      -0.57606624      -0.60369695
C        5.68175012       1.69186199      -0.07927836
Cl       5.81251541       1.59930221       1.68267618
H        4.65514863       2.03608893      -0.33320715
H        6.39547291       2.45784406      -0.44311424
H        2.95107524      -0.27232748       1.51606749
O        3.03161126       0.33785492       0.76576871
H        4.12873091      -0.25159581      -0.13169278
