25
Properties=species:S:1:pos:R:3 pbc="F F F"
C        1.25880026       0.72096288      -1.68849453
C        1.27652883      -0.61556837      -1.29773914
C        0.07979849      -1.32453949      -1.15314181
C       -1.13225949      -0.67364767      -1.39683738
C       -1.14881759       0.66470852      -1.78203066
C        0.04645808       1.36422643      -1.93043081
H        2.19616693       1.26481505      -1.80446804
C        2.60635371      -1.26582997      -1.03983448
H       -2.07139223      -1.21332662      -1.28364848
H       -2.09882725       1.16388842      -1.96686804
H        0.03289005       2.40952157      -2.23307088
O        3.24751908      -1.60719712      -2.06935070
C        3.03775754      -1.41028665       0.24375494
O        6.82864733      -2.23238117       0.55000032
H        7.00081280      -2.21476322       1.50612920
H        7.25017875      -3.81308918       0.05613198
O        7.48598003      -4.71619901      -0.21673319
H        8.22870855      -4.95126611       0.34604851
H        3.97636189      -1.84982565       0.48369857
H        2.46417405      -1.11944420       1.08829608
H        5.87565367      -2.15244498       0.49580700
C        0.08405564      -2.75668737      -0.74422337
H       -0.92470741      -3.17312118      -0.62272334
H        0.61122913      -2.89567942       0.21405089
H        0.60742969      -3.38480941      -1.48199078
