40

 C 1.183060851 0.664326185 -0.884837189
 C 0.914287575 -0.626048478 -1.334721227
 C -0.193324902 -1.333534296 -0.853926985
 C -1.041061269 -0.731049879 0.082860600
 C -0.757271962 0.566003715 0.524371717
 C 0.354235847 1.274710950 0.048792908
 H 2.053665310 1.200647101 -1.268214260
 H 1.574976423 -1.094214012 -2.073943040
 H -1.917146799 -1.268573552 0.463790607
 H 0.569248577 2.286974821 0.403072921
 N -1.608078993 1.208949354 1.496816252
 O -1.332232798 2.342711587 1.871987529
 O -2.583492946 0.612816410 1.933394130
 C -0.433317806 -2.713116194 -1.352604318
 C -0.409694141 -3.764612089 -0.267627416
 H -0.504297895 -4.781948502 -0.672950155
 H -1.226622618 -3.624929758 0.457335935
 H 0.532475117 -3.732917371 0.294428545
 N -1.559465408 -2.811353841 -2.211291836
 O -1.968300045 -3.913018707 -2.588331075
 O -2.113046990 -1.789806123 -2.632633550
 H 0.675393243 -3.098711747 -2.175849283
 C 5.610412024 -5.753422650 -4.663672241
 N 5.143758781 -6.589173759 -5.629150103
 C 3.711721826 -6.581496155 -5.948824470
 C 2.864469997 -5.945403034 -4.834892827
 N 3.378283687 -4.578415334 -4.481149229
 C 4.808923138 -4.685044146 -4.005337386
 H 6.639249074 -5.865183763 -4.345679014
 H 5.617341861 -7.483185923 -5.760271628
 H 3.355944925 -7.623087592 -6.142195217
 H 3.575404731 -6.032562687 -6.914141957
 H 1.803599720 -5.855984687 -5.168453721
 H 2.868131628 -6.583019799 -3.922905079
 H 3.345088835 -3.967442630 -5.321910721
 H 5.305269762 -3.693613586 -4.163252701
 H 4.800251802 -4.858622214 -2.899564769
 H 2.349338433 -3.463786182 -1.965533479
 H 2.688241237 -4.095201807 -3.696411074
 O 1.801419869 -3.404348022 -2.723520609
