25
Properties=species:S:1:pos:R:3 pbc="F F F"
C        0.36894330      -0.43276691       0.20737245
H        0.54519209      -1.06845242      -0.66761139
N        0.62775533      -2.39637279       1.61568572
O        0.74669290      -3.15282631       0.61942334
O        0.66464248      -2.93533623       2.75468381
H       -0.12627488       1.52723335       0.89503894
C        0.47833929      -1.07441162       1.49426481
H        2.48612850      -0.52902836       1.93165944
H        0.35960114      -0.48035331       2.39730433
C        0.05425444       0.86123841       0.06862833
H       -0.03835216       1.35051528      -0.88500461
C        5.92779855       0.72768251       3.84390895
C        6.97708167       1.51310303       4.31305847
C        6.93134972       2.89620503       4.13772452
C        5.82919126       3.46775773       3.50097881
C        4.79848669       2.64975998       3.04533432
N        4.86324034       1.30262660       3.22135904
H        5.91836103      -0.37211071       3.95775246
H        7.82909095       1.03898534       4.81183955
H        5.76730537       4.55086341       3.35429506
H        3.90572648       3.05396544       2.53483382
H        7.75316685       3.52652060       4.49530094
H        3.70427115      -1.35275051       2.41021606
H        4.08927626       0.67875987       2.83333669
O        3.48180969      -0.52527627       1.95024397
