29
Properties=species:S:1:pos:R:3 pbc="F F F"
C       -0.77463000       1.15981000      -0.03181000
C        0.57960000       1.17834000       0.32139000
C        1.31750000      -0.01022000       0.30630000
C        0.69150000      -1.20409000      -0.04863000
C       -0.67107000      -1.20107000      -0.38372000
C       -1.42389000      -0.02537000      -0.38728000
H        1.05198000       2.13250000       0.60762000
H        1.24662000      -2.15508000      -0.06567000
H       -2.49401000      -0.02996000      -0.65583000
N       -1.31123000      -2.45023000      -0.73645000
O       -2.49482000      -2.44517000      -1.04224000
O       -0.64787000      -3.47722000      -0.71843000
C        2.77024000       0.04019000       0.70776000
H        2.84763000       0.52252000       1.73199000
C        3.49427000      -1.29826000       0.74480000
H        4.55145000      -1.18730000       1.04584000
H        3.50459000      -1.80825000      -0.23040000
H        3.04441000      -1.99109000       1.47332000
N        3.54254000       0.93088000      -0.23578000
O        4.73738000       1.07220000      -0.03253000
O        2.95902000       1.47957000      -1.15142000
O        2.58941000       3.45965000       7.41931000
H        2.89024000       2.66993000       7.71263000
N       -1.52429000       2.39881000      -0.02955000
O       -2.70108000       2.37641000      -0.35677000
O       -0.95515000       3.42987000       0.29670000
H        2.39957000       1.76825000       4.27873000
H        2.91304000       2.35123000       5.58678000
O        3.20087000       1.84688000       4.80336000
