27
XYZ file generated by gabedit : coordinates in Angstrom
C         -0.7684600000          1.1720400000         -0.0241900000
C          0.5786300000          1.1840400000          0.3318100000
C          1.3276500000          0.0001500000          0.3282000000
C          0.7145600000         -1.2004500000         -0.0199900000
C         -0.6411200000         -1.2002100000         -0.3601800000
C         -1.3926900000         -0.0209600000         -0.3779100000
H         -1.3400300000          2.1044800000         -0.0351700000
H          1.0529100000          2.1318900000          0.6068000000
H          1.2622700000         -2.1522000000         -0.0352100000
H         -2.4489200000         -0.0373600000         -0.6645000000
N         -1.2559600000         -2.4566900000         -0.7086200000
O         -2.4386400000         -2.4793200000         -1.0174800000
O         -0.5794800000         -3.4766900000         -0.6828200000
C          2.7830200000          0.0324100000          0.7112200000
H          2.8992200000          0.4927900000          1.7424600000
C          3.4189700000         -1.3527900000          0.6888600000
H          4.4785000000         -1.3526700000          0.9759100000
H          3.3589100000         -1.8243200000         -0.3063700000
H          2.9049800000         -2.0272500000          1.3963900000
N          3.5474800000          0.9307800000         -0.2253700000
O          4.7414000000          1.0831600000         -0.0237900000
O          2.9615200000          1.4974500000         -1.1316600000
O          2.6332900000          2.3292510000          5.4499410000
H          2.9889800000          1.7465010000          6.0256010000
H          2.2451420000          0.9032180000          3.1931930000
H          3.4035980000          1.2500370000          3.1250300000
O          2.8705250000          1.0338780000          3.2238180000
 
