39
Coordinates from ORCA-job neb_initial_path E   0.000000000000
  C      -3.454893      2.123544     -2.643739
  C      -2.368581      1.552642     -1.988606
  C      -2.532239      0.390888     -1.236740
  C      -3.792517     -0.202180     -1.154119
  C      -4.875370      0.363575     -1.816089
  C      -4.709262      1.528612     -2.560522
  H      -3.320195      3.030276     -3.219908
  H      -1.389030      2.009473     -2.051176
  H      -3.930465     -1.107758     -0.577349
  H      -5.555216      1.969800     -3.072367
  C      -1.339738     -0.198514     -0.518156
  C      -1.543819     -0.450269      0.961784
  H      -0.650741     -0.889880      1.404006
  H      -2.396833     -1.099006      1.149013
  H      -1.727649      0.512796      1.439295
  N      -0.973692     -1.502763     -1.242640
  O      -0.320741     -1.398462     -2.269361
  O      -1.364187     -2.562950     -0.786041
  N       2.154516      0.117575      1.005638
  C       2.472103     -1.191753      0.438365
  C       2.842763     -2.153220      1.557408
  N       3.979851     -1.611603      2.306163
  C       3.662431     -0.298460      2.873804
  C       3.289871      0.659002      1.751128
  H       3.012723      1.629641      2.167043
  H       4.173778      0.804966      1.108258
  H       4.536076      0.076060      3.410610
  H       2.821454     -0.348667      3.584200
  H       3.121425     -3.122929      1.140508
  H       1.959538     -2.299099      2.199935
  H       3.311986     -1.141336     -0.274287
  H      -0.470107      0.429097     -0.695849
  H       1.877476      0.762220      0.272013
  H       1.602252     -1.570523     -0.098829
  H       4.236815     -2.251947      3.048442
  H       1.636624      2.391026     -1.913294
  H       0.767324      2.997415     -0.807720
  O       1.105817      2.156760     -1.141376
  H      -5.849548     -0.104049     -1.749446
39
Coordinates from ORCA-job neb_initial_path E   0.000000000000
  C      -3.363323      2.282117     -2.328965
  C      -2.268304      1.566141     -1.869524
  C      -2.466248      0.342544     -1.242222
  C      -3.740164     -0.200107     -1.071979
  C      -4.839387      0.527401     -1.499691
  C      -4.629381      1.744623     -2.137446
  H      -3.204202      3.228447     -2.829400
  H      -1.273270      1.945794     -2.051491
  H      -3.911921     -1.155831     -0.592014
  H      -5.488374      2.294702     -2.496589
  C      -1.260353     -0.380576     -0.697758
  C      -1.466455     -0.753393      0.751196
  H      -0.623437     -1.344133      1.088538
  H      -2.328638     -1.381799      0.972171
  H      -1.525431      0.162460      1.337262
  N      -1.044840     -1.608879     -1.589975
  O      -0.471343     -1.419438     -2.651256
  O      -1.508230     -2.677209     -1.232660
  N       2.089771      0.094987      0.911513
  C       2.558726     -1.213919      0.462549
  C       2.858188     -2.074802      1.678652
  N       3.852585     -1.393989      2.511784
  C       3.378681     -0.076127      2.946350
  C       3.084592      0.784837      1.728511
  H       2.694893      1.755173      2.042735
  H       4.021829      0.955617      1.173731
  H       4.157549      0.400949      3.543987
  H       2.469710     -0.139993      3.565670
  H       3.236365     -3.048409      1.361133
  H       1.937998     -2.261510      2.254809
  H       3.468033     -1.134686     -0.155830
  H      -0.383798      0.228556     -0.897009
  H       1.852061      0.670790      0.111502
  H       1.798365     -1.690607     -0.157104
  H       4.052365     -1.964246      3.325866
  H       1.862718      2.064791     -2.219407
  H       0.988250      2.825402     -1.225275
  O       1.261613      1.932580     -1.474747
  H      -5.827193      0.111743     -1.347615
39
Coordinates from ORCA-job neb_initial_path E   0.000000000000
  C      -3.236001      2.405873     -2.005712
  C      -2.161131      1.574755     -1.735223
  C      -2.399707      0.303633     -1.232377
  C      -3.687818     -0.177199     -0.987447
  C      -4.762279      0.676248     -1.176334
  C      -4.508360      1.930013     -1.718730
  H      -3.051896      3.381139     -2.436789
  H      -1.169603      1.888671     -2.023417
  H      -3.901327     -1.163650     -0.592466
  H      -5.355249      2.569001     -1.925907
  C      -1.204583     -0.547293     -0.887638
  C      -1.367859     -1.086445      0.516773
  H      -0.589627     -1.823798      0.664897
  H      -2.257699     -1.661617      0.783347
  H      -1.324454     -0.237635      1.195178
  N      -1.159805     -1.676433     -1.924406
  O      -0.659056     -1.404488     -3.003695
  O      -1.700181     -2.735537     -1.658635
  N       2.025491      0.083982      0.833402
  C       2.633498     -1.205973      0.518085
  C       2.857301     -1.971526      1.811704
  N       3.707648     -1.168485      2.694220
  C       3.104012      0.135772      2.987591
  C       2.878164      0.899955      1.693380
  H       2.394231      1.856270      1.901329
  H       3.854213      1.106003      1.223852
  H       3.785440      0.704254      3.623156
  H       2.146028      0.046357      3.523818
  H       3.323931     -2.935373      1.598544
  H       1.907917     -2.192772      2.325033
  H       3.596636     -1.090722     -0.006930
  H      -0.310829      0.021504     -1.123057
  H       1.823358      0.591258     -0.020303
  H       1.995253     -1.771744     -0.161924
  H       3.854360     -1.672804      3.561697
  H       2.071781      1.715340     -2.475879
  H       1.196120      2.628622     -1.639975
  O       1.406775      1.694006     -1.774517
  H      -5.754691      0.310839     -0.944644
39
Coordinates from ORCA-job neb_initial_path E   0.000000000000
  C      -3.061367      2.487290     -1.679353
  C      -2.030265      1.566254     -1.592075
  C      -2.315632      0.266846     -1.199917
  C      -3.608340     -0.147920     -0.867775
  C      -4.626622      0.791216     -0.845240
  C      -4.330388      2.069682     -1.301098
  H      -2.849453      3.483710     -2.043980
  H      -1.052625      1.838841     -1.956655
  H      -3.865062     -1.150557     -0.545493
  H      -5.144326      2.778547     -1.360018
  C      -1.160166     -0.694995     -1.083000
  C      -1.245279     -1.426333      0.242839
  H      -0.524112     -2.235692      0.194294
  H      -2.149294     -1.963647      0.544982
  H      -1.127627     -0.654958      1.000193
  N      -1.314676     -1.694630     -2.236836
  O      -0.875368     -1.342472     -3.318910
  O      -1.934656     -2.726891     -2.046088
  N       1.952775      0.084145      0.760069
  C       2.677053     -1.171933      0.591711
  C       2.817474     -1.850033      1.944499
  N       3.529415     -0.940013      2.845326
  C       2.823699      0.337323      2.994088
  C       2.664219      1.007470      1.638900
  H       2.100021      1.936783      1.736614
  H       3.664677      1.254939      1.246834
  H       3.408719      0.986528      3.648142
  H       1.830553      0.216534      3.454514
  H       3.361088     -2.791289      1.838685
  H       1.839729     -2.104393      2.383867
  H       3.678203     -1.020884      0.152966
  H      -0.248881     -0.173462     -1.356731
  H       1.788463      0.522618     -0.138374
  H       2.157164     -1.820317     -0.114055
  H       3.624478     -1.382396      3.752906
  H       2.264788      1.359415     -2.666483
  H       1.360295      2.392810     -2.044752
  O       1.535959      1.440958     -2.035541
  H      -5.614634      0.470908     -0.539054
39
Coordinates from ORCA-job neb_initial_path E   0.000000000000
  C      -2.838385      2.527879     -1.352146
  C      -1.874705      1.538114     -1.453490
  C      -2.208653      0.226778     -1.152477
  C      -3.487537     -0.130377     -0.716954
  C      -4.430457      0.863878     -0.511265
  C      -4.091832      2.158827     -0.882846
  H      -2.592429      3.538740     -1.649303
  H      -0.911024      1.788921     -1.865879
  H      -3.784425     -1.140465     -0.459958
  H      -4.854131      2.920182     -0.793783
  C      -1.125517     -0.815125     -1.278955
  C      -1.123163     -1.729092     -0.069549
  H      -0.431582     -2.540845     -0.277071
  H      -2.029028     -2.249413      0.253252
  H      -0.912482     -1.060554      0.759546
  N      -1.487196     -1.662119     -2.505829
  O      -1.104943     -1.231656     -3.580670
  O      -2.179113     -2.656256     -2.361147
  N       1.867293      0.085406      0.685507
  C       2.682884     -1.124308      0.669921
  C       2.745271     -1.716829      2.067697
  N       3.316861     -0.707709      2.962254
  C       2.522462      0.525639      2.965204
  C       2.436368      1.103722      1.561363
  H       1.803365      1.992544      1.546450
  H       3.449018      1.398005      1.239022
  H       3.007481      1.249324      3.622814
  H       1.502637      0.364937      3.348773
  H       3.356198     -2.622238      2.068586
  H       1.749637     -2.015204      2.432423
  H       3.707777     -0.936622      0.306557
  H      -0.200374     -0.339192     -1.586900
  H       1.750503      0.454985     -0.250453
  H       2.265702     -1.851254     -0.026528
  H       3.360664     -1.089386      3.900715
  H       2.439950      1.021946     -2.790277
  H       1.458012      2.103893     -2.438772
  O       1.650048      1.174079     -2.251933
  H      -5.405157      0.580844     -0.133897
39
Coordinates from ORCA-job neb_initial_path E   0.000000000000
  C      -2.569930      2.528512     -1.026958
  C      -1.697039      1.495171     -1.325723
  C      -2.079011      0.181629     -1.098304
  C      -3.324335     -0.132229     -0.551084
  C      -4.180125      0.893927     -0.182590
  C      -3.795742      2.198761     -0.464811
  H      -2.283079      3.546983     -1.253072
  H      -0.751701      1.731281     -1.787062
  H      -3.657696     -1.144755     -0.359169
  H      -4.487986      2.994395     -0.226146
  C      -1.101051     -0.906398     -1.463735
  C      -1.009419     -1.971650     -0.392748
  H      -0.341342     -2.758168     -0.733206
  H      -1.914615     -2.469765     -0.041847
  H      -0.663351     -1.429659      0.479108
  N      -1.657407     -1.588682     -2.719545
  O      -1.333080     -1.084271     -3.781113
  O      -2.412476     -2.539449     -2.598743
  N       1.771688      0.079400      0.607677
  C       2.658253     -1.071864      0.742199
  C       2.644529     -1.572496      2.176950
  N       3.069839     -0.472739      3.045520
  C       2.194280      0.696022      2.902365
  C       2.193575      1.183094      1.461542
  H       1.503665      2.018861      1.334609
  H       3.208230      1.530631      1.205262
  H       2.569983      1.489296      3.551115
  H       1.156699      0.481749      3.203933
  H       3.315193     -2.427595      2.286387
  H       1.641968     -1.922087      2.470422
  H       3.696249     -0.840379      0.449130
  H      -0.169289     -0.469628     -1.808350
  H       1.714667      0.381881     -0.357550
  H       2.332383     -1.869982      0.075111
  H       3.061061     -0.793668      4.007328
  H       2.585732      0.725549     -2.872134
  H       1.493966      1.759720     -2.799492
  O       1.749621      0.907974     -2.420337
  H      -5.132906      0.640630      0.265061
39
Coordinates from ORCA-job neb_initial_path E   0.000000000000
  C      -2.263720      2.488468     -0.708582
  C      -1.504492      1.442244     -1.209780
  C      -1.937034      0.131652     -1.051135
  C      -3.131779     -0.152622     -0.390466
  C      -3.886354      0.885777      0.135249
  C      -3.449071      2.192157     -0.048596
  H      -1.928300      3.506500     -0.856836
  H      -0.588647      1.665114     -1.736223
  H      -3.498786     -1.162932     -0.262934
  H      -4.051298      3.001472      0.341850
  C      -1.086865     -0.973645     -1.626288
  C      -0.899627     -2.147858     -0.693087
  H      -0.284443     -2.911019     -1.165523
  H      -1.803697     -2.614464     -0.305178
  H      -0.391060     -1.740089      0.173323
  N      -1.813005     -1.487376     -2.876293
  O      -1.550589     -0.913975     -3.920508
  O      -2.622844     -2.392584     -2.763025
  N       1.669529      0.064122      0.526025
  C       2.614704     -1.012962      0.805752
  C       2.514256     -1.416673      2.268121
  N       2.787636     -0.238975      3.095268
  C       1.843427      0.846301      2.806777
  C       1.938431      1.242535      1.341352
  H       1.204206      2.014345      1.105041
  H       2.944097      1.652291      1.149275
  H       2.098911      1.702704      3.433360
  H       0.801407      0.563860      3.026702
  H       3.236061     -2.204924      2.492056
  H       1.513018     -1.823028      2.483654
  H       3.655867     -0.724441      0.584188
  H      -0.159989     -0.564954     -2.016774
  H       1.682299      0.304298     -0.458490
  H       2.384291     -1.872316      0.174153
  H       2.723348     -0.499594      4.072897
  H       2.694499      0.447160     -2.944543
  H       1.517985      1.395147     -3.083335
  O       1.835218      0.653018     -2.552561
  H      -4.807587      0.655265      0.655117
39
Coordinates from ORCA-job neb_initial_path E   0.000000000000
  C      -1.941256      2.413998     -0.402994
  C      -1.313933      1.385436     -1.096750
  C      -1.800447      0.081727     -1.019743
  C      -2.932207     -0.180280     -0.247663
  C      -3.563559      0.848630      0.441088
  C      -3.067688      2.147244      0.367994
  H      -1.546715      3.420444     -0.461450
  H      -0.431297      1.592404     -1.687374
  H      -3.325718     -1.186084     -0.182532
  H      -3.556924      2.946468      0.910352
  C      -1.083356     -1.020331     -1.766596
  C      -0.788369     -2.266957     -0.956807
  H      -0.279601     -3.011614     -1.569776
  H      -1.691566     -2.708316     -0.541009
  H      -0.128021     -1.973061     -0.141401
  N      -1.943499     -1.370511     -2.990208
  O      -1.744550     -0.731213     -4.011490
  O      -2.795887     -2.235353     -2.880980
  N       1.565098      0.041579      0.441020
  C       2.557446     -0.942158      0.864564
  C       2.363307     -1.248513      2.342443
  N       2.477742     -0.008051      3.114817
  C       1.482592      0.978285      2.684190
  C       1.678362      1.280042      1.205884
  H       0.911940      1.978000      0.864540
  H       2.661112      1.762708      1.072402
  H       1.608423      1.888584      3.273488
  H       0.452459      0.616054      2.832971
  H       3.126280     -1.950402      2.684621
  H       1.378265     -1.724854      2.474617
  H       3.589688     -0.584858      0.711665
  H      -0.174817     -0.622879     -2.209463
  H       1.650160      0.226562     -0.552563
  H       2.428393     -1.852619      0.275866
  H       2.356417     -0.207366      4.101149
  H       2.778005      0.142543     -3.014512
  H       1.569373      1.038395     -3.302988
  O       1.915479      0.400977     -2.665528
  H      -4.441131      0.635339      1.038154
