28
XYZ file generated by gabedit : coordinates in Angstrom
C         -0.1018900000          0.0519000000          0.1413400000
H         -1.1438600000          0.1740200000          0.4452500000
N         -0.2272000000         -2.3786700000          0.1819900000
O         -1.4180400000         -2.5711000000          0.3582000000
O          0.6252900000         -3.1239600000          0.6451700000
H          1.8777500000          0.8595100000          0.1018700000
C          0.2030500000         -1.2060900000         -0.6109200000
H         -0.3401700000         -1.2150600000         -1.5962100000
H          1.2916300000         -1.3006200000         -0.8676600000
C          0.8376800000          0.9621000000          0.3884400000
H          0.6411400000          1.8956500000          0.9008100000
C          6.4126850000         -2.4540270000         -0.1795690000
C          7.7492650000         -2.7382200000          0.1430950000
C          8.6928190000         -1.7186740000         -0.0102420000
C          8.2812210000         -0.4693110000         -0.4658560000
C          6.9259230000         -0.2660550000         -0.7518890000
N          6.0108350000         -1.2455400000         -0.6170390000
H          5.6267640000         -3.2168030000         -0.0944780000
H          8.9981810000          0.3395750000         -0.6016330000
H          6.5524560000          0.7049740000         -1.1011070000
C          8.1392590000         -4.0924330000          0.6054910000
H          9.0416220000         -4.0853680000          1.2366120000
H          8.3582720000         -4.7541840000         -0.2507590000
H          7.3493620000         -4.5872910000          1.1915010000
H          9.7442160000         -1.9015840000          0.2245740000
H          3.3307850000         -1.8641270000         -0.4573540000
O          3.9827850000         -1.5400870000         -1.0834740000
H          4.6963250000         -1.1786870000         -0.5383340000
 
