10

C          0.43973       -0.77615        0.55698
H          0.99706       -1.42846       -0.14632
H          0.92619        0.22470        0.53418
H          0.56809       -1.18193        1.58223
N         -0.96451       -0.66295        0.18794
O         -1.80017       -0.48653        1.06343
O         -1.27867       -0.73834       -0.99168
H          3.77261       -1.64753        1.37466
O          2.95342       -1.18193        1.58223
H          3.17675       -0.25400        1.43927
