28

C          0.59869        0.24421        0.27816
H          0.19007       -0.01659        1.26137
N          0.81829       -2.13693       -0.20650
O          0.53929       -2.45153        0.97146
O          1.07336       -3.06522       -1.01207
H          1.24355        1.83341       -1.00172
C          0.87125       -0.85641       -0.61366
H          1.06882       -0.65882       -1.66696
H          2.83072       -0.30934       -0.84450
C          0.83764        1.51826       -0.05514
H          0.64608        2.34878        0.60303
C          6.85889        1.36854       -0.17781
C          7.87010        2.32870       -0.05409
C          7.50856        3.68049       -0.03707
C          6.16608        4.03505       -0.13770
C          5.19600        3.04061       -0.26070
N          5.55621        1.73334       -0.27965
H          7.08225        0.28784       -0.19490
H          5.86609        5.08779       -0.12334
H          4.12213        3.27718       -0.34575
C          9.28567        1.90323        0.04040
H          9.96247        2.72315        0.32977
H          9.66005        1.51702       -0.92512
H          9.43863        1.09684        0.77825
H          8.27712        4.45634        0.05543
H          4.30955       -0.95202       -0.19869
O          4.13132       -0.29246       -0.87556
H          4.78724        0.94162       -0.41662
