29
Coordinates from ORCA-job neb_NEB-CI_converged
  C   -2.00631956538474      0.63791180176057     -0.23137459147727
  C   -0.65470518163813      0.63666311796862      0.06483988204934
  C   0.18296711367251     -0.33580944806906     -0.48626484984978
  C   -0.37161305836344     -1.26812423125720     -1.36154251692809
  C   -1.73352668606324     -1.22361285573964     -1.64229165199409
  C   -2.58400724228838     -0.28866524238644     -1.08183894306578
  H   -0.24601187096763      1.36048767343750      0.75277482230090
  H   0.23524004444417     -2.02969884073253     -1.82681149038405
  H   -3.64120516842961     -0.28868734973741     -1.28597954080893
  N   -2.31146357719911     -2.21505962538947     -2.56209022819354
  O   -3.51307250370375     -2.16095038221809     -2.78355371003500
  O   -1.56301148732577     -3.04338209371895     -3.06020730573257
  C   1.61316414256565     -0.38240732181457     -0.02904862462720
  H   1.57771878202914      0.12235042953248      1.18772898225194
  C   2.27130219207673     -1.75527467351140     -0.04447473655451
  H   3.25931183272614     -1.71747662302622      0.40705508427077
  H   2.38429570990576     -2.13506644923507     -1.06586301656937
  H   1.66257754707953     -2.46502714770293      0.51475343937763
  N   2.44218058896257      0.58669312878689     -0.72551688050412
  O   3.65887677028186      0.58189624608759     -0.49996237549194
  O   1.92461307902511      1.42747562632441     -1.47193112267683
  O   1.30549332203945      3.36376899611007      3.22314859294322
  H   1.77144657830208      3.47497836716944      4.05978626477457
  N   -2.87512247633443      1.63492329395157      0.41064682552324
  O   -4.06838521240777      1.61137545505971      0.14675718628601
  O   -2.36193905863754      2.43279051631650      1.18211161370945
  H   0.76029700738429      0.29521750483457      2.85412635913364
  H   1.40205017679140      2.40771724196034      2.97332971419746
  O   1.47884820145713      0.73499288523869      2.38169281807491
