41
Coordinates from ORCA-job /home/rudenko/mop_saddle_orca_4_serv/for_orca/m-o2nc6h4chno2ch3_piperidine/orca/orca_start/start
  C   -0.64061149055456      0.86579922662100      1.22299414150674
  C   0.72316479190613      0.93207989551665      1.48798065609296
  C   1.54324507471828     -0.17865549388634      1.28957924687211
  C   0.98999651316959     -1.36212543999093      0.81382055802429
  C   -0.37124646445733     -1.40413152210053      0.55068182848699
  C   -1.20305425638328     -0.30886014213418      0.74842999096323
  H   -1.26650078029364      1.73225600112583      1.38772978741308
  H   1.16120329427265      1.84643972130891      1.86536124735354
  H   1.59471956532111     -2.23938644568270      0.64341135607726
  H   -2.25865792696004     -0.38197538169953      0.53634891221349
  N   -0.95284119398747     -2.65477360527667      0.04922479294484
  O   -2.15435806673566     -2.67988870981037     -0.18456353334375
  O   -0.21235490772365     -3.61630067623180     -0.11214909745569
  C   3.01990550798470     -0.07492703223113      1.60040265999490
  C   3.57714852726913     -1.20123068995938      2.44691318407335
  H   4.64477590526352     -1.06087360062225      2.61454644540030
  H   3.41465639178641     -2.17528277236605      1.99087933094330
  H   3.06946609411125     -1.17723468557584      3.41124981259401
  N   3.75485769954716      0.00217144220453      0.25359835227709
  O   3.85584961578945      1.10524779564313     -0.25740482097554
  O   4.16889773023052     -1.02822682760937     -0.24750815945920
  H   3.21865331937405      0.89726749135620      2.04642641666374
  C   0.92044010758138      0.37585562207076      6.33172517151781
  C   2.07411458969527     -0.30286009491304      6.98519552109857
  C   3.28794437797893      0.63409411375898      7.09690828612624
  C   3.54456704123443      1.35247427030040      5.77314815729982
  N   2.37175141665663      2.09465732353386      5.28231062323265
  C   1.18962068064691      1.21890991023128      5.13395289652617
  H   -0.09469086401349      0.06594083260577      6.54748251501712
  H   1.79639320987587     -0.69674975915962      7.96523748451402
  H   2.37367246355830     -1.17602860751074      6.37910098804926
  H   4.17667941776429      0.07115596537933      7.39311815843153
  H   3.10075329200203      1.38158838020590      7.87429439415422
  H   4.37495222789214      2.05433886092044      5.86898253712981
  H   3.81743134439196      0.62597933072934      5.00202826057891
  H   2.14704097452457      2.82213504672688      5.95570303035248
  H   0.32944642930553      1.83934477655973      4.87738385241600
  H   1.38105484028119      0.57901457165993      4.25924172953353
  H   2.84636139790434      2.79057101730688      3.73415479130151
  H   2.59803779108867      3.77013746438367      2.53938836393905
  O   3.20346772798256      3.08541869661104      2.84688762012001
