17
Coordinates from ORCA-job neb_initial_path E   0.000000000000
  C       0.660476     -2.356930      3.030665
  H       1.310207     -2.443785      2.165766
  H       0.867951     -1.435095      3.573027
  H       0.720118     -3.216890      3.689059
  N      -0.745646     -2.244874      2.544346
  O      -1.631866     -2.729974      3.225191
  O      -0.943593     -1.643652      1.496611
  C       0.053786      1.830057     -2.484013
  O       0.210065      1.600224     -1.245271
  O       0.506424      1.129632     -3.417530
  C      -0.766085      3.075024     -2.829751
  H      -0.790304      3.256083     -3.903038
  H      -0.346374      3.946745     -2.323602
  H      -1.788933      2.949754     -2.464716
  H       0.889332      0.115716     -0.778658
  O       1.236240     -0.755257     -0.443769
  H       0.558203     -1.076780      0.165684
17
Coordinates from ORCA-job neb_initial_path E   0.000000000000
  C       0.576436     -2.280683      2.928153
  H       1.354827     -2.292223      1.992706
  H       0.818892     -1.415824      3.540481
  H       0.649522     -3.224251      3.455266
  N      -0.788212     -2.112534      2.427594
  O      -1.722391     -2.373462      3.182606
  O      -1.062398     -1.647660      1.322878
  C       0.029127      1.724657     -2.367085
  O       0.286511      1.590603     -1.120890
  O       0.408207      0.961750     -3.278073
  C      -0.800647      2.957646     -2.710712
  H      -0.897497      3.074306     -3.788322
  H      -0.336921      3.848665     -2.283419
  H      -1.794592      2.862044     -2.266425
  H       0.995363      0.224331     -0.703326
  O       1.495991     -0.682421     -0.356671
  H       0.787780     -1.214945      0.025241
17
Coordinates from ORCA-job neb_initial_path E   0.000000000000
  C       0.493666     -2.215472      2.828110
  H       1.408134     -2.124763      1.841591
  H       0.778663     -1.420468      3.510294
  H       0.565943     -3.223147      3.215170
  N      -0.823960     -1.972569      2.303215
  O      -1.765655     -1.967840      3.111583
  O      -1.143885     -1.697948      1.139994
  C       0.006387      1.623593     -2.251057
  O       0.360419      1.570838     -1.013093
  O       0.315351      0.803137     -3.131250
  C      -0.830558      2.845987     -2.597561
  H      -0.997288      2.904284     -3.671037
  H      -0.330862      3.751381     -2.248878
  H      -1.792608      2.784184     -2.083087
  H       1.047671      0.307586     -0.602651
  O       1.671159     -0.620923     -0.201666
  H       1.037423     -1.347859     -0.149677
17
Coordinates from ORCA-job neb_initial_path E   0.000000000000
  C       0.408258     -2.160570      2.728001
  H       1.441385     -1.933977      1.694760
  H       0.740530     -1.451834      3.478467
  H       0.484672     -3.211821      2.963697
  N      -0.854305     -1.834381      2.175314
  O      -1.757824     -1.527064      2.984188
  O      -1.214729     -1.773499      0.983451
  C      -0.014490      1.523214     -2.133238
  O       0.433118      1.538959     -0.915831
  O       0.225529      0.649614     -2.975789
  C      -0.856800      2.735429     -2.485010
  H      -1.091589      2.739837     -3.547051
  H      -0.327026      3.650301     -2.215129
  H      -1.783805      2.710617     -1.907262
  H       1.069240      0.361179     -0.514924
  O       1.773972     -0.597531     -0.035758
  H       1.323865     -1.418473     -0.277884
17
Coordinates from ORCA-job neb_initial_path E   0.000000000000
  C       0.313045     -2.119319      2.627563
  H       1.438996     -1.734621      1.546034
  H       0.691423     -1.501425      3.432145
  H       0.409073     -3.190529      2.705758
  N      -0.887325     -1.705077      2.052223
  O      -1.688508     -1.084609      2.799469
  O      -1.299836     -1.836593      0.873102
  C      -0.035089      1.420334     -2.012871
  O       0.502780      1.499725     -0.825768
  O       0.135828      0.493257     -2.806171
  C      -0.881472      2.622623     -2.371397
  H      -1.182660      2.575079     -3.415249
  H      -0.327152      3.542791     -2.181743
  H      -1.770032      2.637351     -1.735964
  H       1.093773      0.406043     -0.447925
  O       1.859157     -0.596936      0.099076
  H       1.627998     -1.428093     -0.338282
17
Coordinates from ORCA-job neb_initial_path E   0.000000000000
  C       0.213199     -2.079448      2.512832
  H       1.414783     -1.535368      1.379785
  H       0.625389     -1.540989      3.354296
  H       0.334933     -3.147338      2.441280
  N      -0.924058     -1.574022      1.933927
  O      -1.568085     -0.692437      2.575525
  O      -1.406679     -1.859305      0.800794
  C      -0.052746      1.312310     -1.885262
  O       0.572439      1.456497     -0.738310
  O       0.052495      0.329451     -2.612081
  C      -0.904538      2.502821     -2.253939
  H      -1.271354      2.402386     -3.272490
  H      -0.332082      3.425159     -2.148575
  H      -1.751070      2.560949     -1.565847
  H       1.132225      0.453457     -0.387151
  O       1.949567     -0.610405      0.208411
  H       1.915581     -1.403719     -0.343195
17
Coordinates from ORCA-job neb_initial_path E   0.000000000000
  C       0.118190     -2.024568      2.374441
  H       1.396614     -1.338932      1.187238
  H       0.550140     -1.552866      3.243063
  H       0.260571     -3.072139      2.169843
  N      -0.958346     -1.432057      1.809799
  O      -1.432712     -0.374990      2.338583
  O      -1.523864     -1.835416      0.744447
  C      -0.064755      1.198474     -1.748383
  O       0.644436      1.409792     -0.652077
  O      -0.019225      0.161543     -2.393032
  C      -0.925306      2.374014     -2.129482
  H      -1.357999      2.219204     -3.114536
  H      -0.340799      3.294496     -2.113492
  H      -1.725391      2.480134     -1.393195
  H       1.179604      0.500917     -0.331556
  O       2.033905     -0.639008      0.314307
  H       2.164939     -1.368597     -0.305969
17
Coordinates from ORCA-job neb_initial_path E   0.000000000000
  C       0.033305     -1.948597      2.216235
  H       1.416463     -1.157797      0.974527
  H       0.471053     -1.539884      3.111539
  H       0.185812     -2.966273      1.897269
  N      -0.983389     -1.279897      1.670700
  O      -1.305804     -0.116964      2.101229
  O      -1.637110     -1.772075      0.686189
  C      -0.070610      1.081151     -1.604292
  O       0.714970      1.362067     -0.566735
  O      -0.077721     -0.003293     -2.156157
  C      -0.944547      2.237847     -1.998337
  H      -1.442430      2.027807     -2.941125
  H      -0.353821      3.151035     -2.075794
  H      -1.693385      2.395299     -1.218564
  H       1.225855      0.546631     -0.283232
  O       2.090813     -0.687769      0.426639
  H       2.370546     -1.329289     -0.240090
