29
Coordinates from ORCA-job neb_initial_path E   0.000000000000
  C      -2.020790      0.440582     -0.026303
  C      -0.675682      0.379689      0.310390
  C       0.171663     -0.436232     -0.436951
  C      -0.340506     -1.176869     -1.497767
  C      -1.690550     -1.074893     -1.800354
  C      -2.558615     -0.270288     -1.082690
  H      -0.249896      0.935377      1.146409
  H       0.290196     -1.819580     -2.091414
  H      -3.603879     -0.204266     -1.335787
  N      -2.227064     -1.842458     -2.932865
  O      -3.413910     -1.723084     -3.197451
  O      -1.456147     -2.561288     -3.552868
  C       1.621936     -0.490197     -0.032048
  H       1.742405      0.120192      0.874267
  C       2.176779     -1.896016      0.169043
  H       3.221013     -1.852695      0.474715
  H       2.093088     -2.495418     -0.737743
  H       1.603810     -2.382599      0.958534
  N       2.503651      0.221935     -1.057218
  O       3.619675      0.536813     -0.676292
  O       2.080878      0.433663     -2.180841
  O       0.980922      3.709448      3.428622
  H       1.807072      3.958204      3.856912
  N      -2.913497      1.300270      0.766080
  O      -4.080690      1.398575      0.412244
  O      -2.444335      1.870738      1.738804
  H       1.260941      0.748139      3.083316
  H       1.148598      2.762146      3.030007
  O       1.352933      1.410112      2.389248
29
Coordinates from ORCA-job neb_initial_path E   0.000000000000
  C      -2.025288      0.501188     -0.091429
  C      -0.677705      0.455621      0.218034
  C       0.177831     -0.409386     -0.457941
  C      -0.356787     -1.208560     -1.463440
  C      -1.710208     -1.124141     -1.745534
  C      -2.580359     -0.279242     -1.083108
  H      -0.271136      1.096629      0.992784
  H       0.262177     -1.881611     -2.033245
  H      -3.629595     -0.227511     -1.320049
  N      -2.264869     -1.966775     -2.811167
  O      -3.457088     -1.865253     -3.057383
  O      -1.496193     -2.721429     -3.388718
  C       1.619245     -0.485703     -0.078702
  H       1.726107      0.105018      1.030241
  C       2.221708     -1.871318      0.075326
  H       3.248396     -1.808144      0.431999
  H       2.220024     -2.423997     -0.864320
  H       1.624627     -2.419006      0.804142
  N       2.511035      0.338191     -0.958315
  O       3.660104      0.578002     -0.601208
  O       2.047303      0.736531     -2.021865
  O       1.062031      3.619945      3.379145
  H       1.825642      3.825458      3.928864
  N      -2.911168      1.409844      0.647208
  O      -4.087960      1.472852      0.321277
  O      -2.424583      2.058490      1.559018
  H       1.080531      0.593152      3.096684
  H       1.231219      2.659511      3.043041
  O       1.374958      1.241646      2.448660
29
Coordinates from ORCA-job neb_initial_path E   0.000000000000
  C      -2.023675      0.557537     -0.153786
  C      -0.672870      0.531490      0.133835
  C       0.183200     -0.380486     -0.480513
  C      -0.371728     -1.236759     -1.427058
  C      -1.728442     -1.170107     -1.689068
  C      -2.596662     -0.287046     -1.078423
  H      -0.267576      1.249219      0.834220
  H       0.233980     -1.944936     -1.965985
  H      -3.649368     -0.249768     -1.300474
  N      -2.298334     -2.083143     -2.684864
  O      -3.495274     -1.999389     -2.914019
  O      -1.533905     -2.871405     -3.221029
  C       1.620442     -0.474054     -0.132407
  H       1.690224      0.068550      1.178268
  C       2.263888     -1.839911     -0.020826
  H       3.269898     -1.763578      0.388023
  H       2.339188     -2.338692     -0.987752
  H       1.649949     -2.445689      0.645013
  N       2.512527      0.442888     -0.861267
  O       3.691270      0.612175     -0.538757
  O       2.015029      1.035402     -1.823849
  O       1.168860      3.529455      3.309959
  H       1.817068      3.692856      4.002833
  N      -2.903208      1.511360      0.531153
  O      -4.088852      1.541122      0.235528
  O      -2.399634      2.234378      1.374452
  H       0.888541      0.462706      3.082768
  H       1.312429      2.550218      3.053964
  O       1.373036      1.065607      2.510062
29
Coordinates from ORCA-job neb_initial_path E   0.000000000000
  C      -2.017780      0.611022     -0.216072
  C      -0.663732      0.606024      0.051651
  C       0.190036     -0.347367     -0.509037
  C      -0.384975     -1.262465     -1.388194
  C      -1.744795     -1.212951     -1.630421
  C      -2.608192     -0.293227     -1.070432
  H      -0.253453      1.378054      0.685415
  H       0.207958     -2.008127     -1.888326
  H      -3.664010     -0.270551     -1.277889
  N      -2.327634     -2.191967     -2.552787
  O      -3.528783     -2.125869     -2.765519
  O      -1.568807     -3.012035     -3.047399
  C       1.625057     -0.451914     -0.192012
  H       1.636415      0.022988      1.313993
  C       2.302551     -1.799357     -0.118765
  H       3.285305     -1.717071      0.341734
  H       2.446239     -2.241386     -1.106379
  H       1.678151     -2.458330      0.483645
  N       2.508174      0.539323     -0.766778
  O       3.712582      0.643238     -0.486722
  O       1.987969      1.318759     -1.583564
  O       1.312711      3.429056      3.234353
  H       1.775623      3.558423      4.068290
  N      -2.890328      1.606843      0.415485
  O      -4.083900      1.605510      0.152393
  O      -2.370429      2.398215      1.184176
  H       0.699011      0.358385      3.040049
  H       1.384672      2.433592      3.059398
  O       1.354366      0.883186      2.569714
29
Coordinates from ORCA-job neb_initial_path E   0.000000000000
  C      -2.009726      0.662214     -0.280734
  C      -0.652476      0.678029     -0.032990
  C       0.199062     -0.310257     -0.544768
  C      -0.396224     -1.286123     -1.345654
  C      -1.758980     -1.253112     -1.569114
  C      -2.615837     -0.297994     -1.060777
  H      -0.238839      1.486420      0.548383
  H       0.186099     -2.067542     -1.801420
  H      -3.674499     -0.289734     -1.253122
  N      -2.352882     -2.293796     -2.413900
  O      -3.557836     -2.245391     -2.610450
  O      -1.600463     -3.144031     -2.865700
  C       1.632173     -0.417256     -0.256162
  H       1.570725     -0.020837      1.437378
  C       2.337090     -1.748141     -0.217442
  H       3.294727     -1.666896      0.292834
  H       2.540031     -2.134872     -1.219082
  H       1.707311     -2.454791      0.321975
  N       2.497342      0.631047     -0.673210
  O       3.723361      0.674848     -0.441990
  O       1.967663      1.571599     -1.304761
  O       1.484940      3.306054      3.179012
  H       1.709541      3.422959      4.107659
  N      -2.873656      1.697845      0.297529
  O      -4.074083      1.667749      0.069194
  O      -2.339141      2.550539      0.987249
  H       0.526648      0.277007      2.972789
  H       1.446751      2.310356      3.053581
  O       1.321179      0.694106      2.623692
29
Coordinates from ORCA-job neb_initial_path E   0.000000000000
  C      -2.000172      0.711536     -0.349138
  C      -0.639465      0.748228     -0.122688
  C       0.209412     -0.271776     -0.584450
  C      -0.405188     -1.306942     -1.298677
  C      -1.770965     -1.290974     -1.504496
  C      -2.619924     -0.301339     -1.050183
  H      -0.225419      1.583785      0.415241
  H       0.169271     -2.120049     -1.706991
  H      -3.681210     -0.307259     -1.226556
  N      -2.374224     -2.389448     -2.266733
  O      -3.582683     -2.359251     -2.447029
  O      -1.628903     -3.268525     -2.673502
  C       1.641138     -0.369720     -0.324139
  H       1.499772     -0.058734      1.552553
  C       2.367525     -1.686266     -0.316827
  H       3.298519     -1.612196      0.241121
  H       2.623160     -2.020656     -1.326607
  H       1.736219     -2.436140      0.158736
  N       2.478587      0.720718     -0.576859
  O       3.722449      0.710773     -0.400396
  O       1.950505      1.782324     -0.996599
  O       1.652421      3.156815      3.159720
  H       1.644015      3.285720      4.113890
  N      -2.853483      1.785897      0.174435
  O      -4.059671      1.729599     -0.016742
  O      -2.306916      2.693181      0.781386
  H       0.379888      0.208176      2.891035
  H       1.506237      2.179993      3.036850
  O       1.269106      0.502530      2.663644
29
Coordinates from ORCA-job neb_initial_path E   0.000000000000
  C      -1.988433      0.758834     -0.420619
  C      -0.624024      0.816802     -0.216120
  C       0.219819     -0.235153     -0.622608
  C      -0.411562     -1.323670     -1.247935
  C      -1.780674     -1.326239     -1.436789
  C      -2.619953     -0.302723     -1.038841
  H      -0.207524      1.677385      0.274827
  H       0.157784     -2.163917     -1.606489
  H      -3.683626     -0.322738     -1.198497
  N      -2.391354     -2.478384     -2.111644
  O      -3.603053     -2.467400     -2.275520
  O      -1.653982     -3.385016     -2.470974
  C       1.651651     -0.310057     -0.394568
  H       1.427541     -0.092747      1.665425
  C       2.393687     -1.615098     -0.416887
  H       3.296607     -1.553316      0.186682
  H       2.699618     -1.899839     -1.429258
  H       1.763492     -2.404895     -0.009072
  N       2.449294      0.808306     -0.475430
  O       3.707551      0.754218     -0.357498
  O       1.925329      1.943389     -0.671959
  O       1.791012      2.991129      3.166169
  H       1.598449      3.144424      4.097552
  N      -2.829224      1.871171      0.045524
  O      -4.040059      1.791859     -0.106538
  O      -2.273447      2.826307      0.566352
  H       0.258161      0.139512      2.804725
  H       1.567545      2.042276      3.016037
  O       1.199373      0.315582      2.683951
29
Coordinates from ORCA-job neb_initial_path E   0.000000000000
  C      -1.973204      0.804278     -0.493574
  C      -0.605249      0.884548     -0.307958
  C       0.229591     -0.201182     -0.655641
  C      -0.415000     -1.335423     -1.195139
  C      -1.788015     -1.358616     -1.366985
  C      -2.614953     -0.301327     -1.026974
  H      -0.175405      1.770311      0.119565
  H       0.151945     -2.198755     -1.500350
  H      -3.680763     -0.335765     -1.169466
  N      -2.403824     -2.559984     -1.950535
  O      -3.618505     -2.569896     -2.097844
  O      -1.675666     -3.492938     -2.260347
  C       1.663371     -0.239410     -0.461372
  H       1.353746     -0.126080      1.781997
  C       2.415077     -1.536607     -0.517343
  H       3.288582     -1.491482      0.129691
  H       2.773586     -1.772693     -1.526348
  H       1.786971     -2.363055     -0.185417
  N       2.406673      0.893145     -0.368907
  O       3.676823      0.806874     -0.307869
  O       1.874700      2.052586     -0.350627
  O       1.899299      2.819428      3.181078
  H       1.576918      2.997011      4.072010
  N      -2.799966      1.953637     -0.088379
  O      -4.014366      1.854909     -0.200487
  O      -2.237859      2.949676      0.343796
  H       0.156189      0.061452      2.720075
  H       1.630146      1.898513      2.995303
  O       1.119157      0.136844      2.688048
