10
Coordinates from ORCA-job /home/rudenko/mop_saddle_orca_4_serv/for_orca/CH3NO2_H2O_near/orca/orca_end/end
  C   0.45835280387684     -0.73561430591761      0.46583619408243
  H   0.24285923441176     -0.18382920285473     -0.44244098483622
  H   0.00765747641225     -0.29018925771108      1.34658023388700
  H   1.53257665183236     -0.85673321448707      0.61000368140675
  N   -0.09436518708425     -2.11226862647080      0.31382778891703
  O   -0.37059630281125     -2.73084188186287      1.33002682648303
  O   -0.21242717397306     -2.56241126943231     -0.81529409252504
  H   3.97916043766050     -1.62512185288375      1.22007631991974
  O   3.55651338769011     -1.13435603550961      1.93610531663755
  H   3.75550508198473     -0.20893477287017      1.74539364602772
