39
Coordinates from ORCA-job /home/rudenko/mop_saddle_orca_4_serv/for_orca/c6h5chno2ch3_piperazine/orca/orca_end/end
  C   3.46788564353590      1.80390858181928      1.68171257457182
  C   3.15946712241845      0.49542393908049      1.32743017189642
  C   1.91188134781418     -0.04442216668086      1.63464311486694
  C   0.96904148715499      0.74579657655297      2.29209292939928
  C   1.27447762963928      2.05600753621826      2.64094312319499
  C   2.52550872303208      2.58695975431988      2.33988138134554
  H   4.44468203427196      2.20794845466356      1.44797332536302
  H   3.89735732332752     -0.11613621299351      0.82520282086249
  H   -0.00612713426434      0.34318221207112      2.53226370421428
  H   2.76409568034691      3.60574687824016      2.61811112662750
  C   1.61345529176698     -1.47803279507567      1.25748903860661
  C   1.01509934466873     -2.32769169861258      2.36062207920916
  H   0.82366239955119     -3.34038061156800      2.00438741043539
  H   0.08842426637884     -1.90672515685657      2.74469455405753
  H   1.74693565574785     -2.37168795362035      3.16672467418432
  N   0.67209523649837     -1.43928982057840      0.04421264610985
  O   1.19016808257881     -1.39653899047250     -1.06080843482006
  O   -0.53190173473801     -1.42047439266541      0.23522517540627
  N   4.39716366505663     -2.00355172811943      3.49139305529994
  C   4.45599798121461     -3.24804475739518      4.25274528508331
  C   4.20239037690050     -2.95063941548610      5.72342582188659
  N   5.19538457578906     -1.98451773284838      6.20193852366592
  C   5.13586904518612     -0.73812308093100      5.43279523549915
  C   5.38743352516376     -1.03989768294609      3.96295903334040
  H   5.29821514593607     -0.12463447945374      3.37525457313429
  H   6.41857644600868     -1.41550911749119      3.85232124271984
  H   5.89610731526589     -0.05206964616997      5.81110605979834
  H   4.15518041047612     -0.24382696093672      5.52467389146044
  H   4.28646439743522     -3.86602317419022      6.31238030731448
  H   3.17389774610777     -2.56946452951187      5.83106696713953
  H   5.43451082550260     -3.74820057342380      4.15828634999754
  H   2.51174358581679     -1.93955036100009      0.85796115846431
  H   4.52049121503628     -2.18676620928078      2.50150248340287
  H   3.69337381121894     -3.93185372740316      3.87463099501993
  H   5.03561090773443     -1.78814647013282      7.18336936973630
  H   5.10861188350183     -3.63902348372499      0.29121982774202
  H   4.84256436326299     -2.27255003522838     -0.34794404396634
  O   4.69163102008202     -2.78395937342261      0.45711827606461
  H   0.53626846757342      2.66140947525485      3.15148127166466
