41

 C 0.890683434 0.434811779 0.638499706
 C 1.019857290 -0.419414199 -0.455380923
 C -0.107228218 -0.966470094 -1.077068089
 C -1.379156592 -0.650423455 -0.590624655
 C -1.494541009 0.207060327 0.508934406
 C -0.368052097 0.757560484 1.131950283
 H 1.784269405 0.852588883 1.111735871
 H 2.021174751 -0.657393879 -0.826091938
 H -2.273444148 -1.066931518 -1.067816097
 H -0.471089490 1.429296761 1.991079822
 N -2.801507339 0.533885051 1.024960709
 O -2.894742436 1.289367617 1.983605052
 O -3.794090029 0.048415166 0.498197481
 C 0.063420395 -1.882244981 -2.230199995
 C -0.302809303 -3.317815040 -1.942532196
 H -0.005194110 -3.992602831 -2.755069773
 H -1.386880175 -3.438061280 -1.793103805
 H 0.185705645 -3.678364074 -1.028139101
 N -0.464628832 -1.392133075 -3.448126962
 O -0.483072441 -2.104485929 -4.457359968
 O -0.867528363 -0.227165581 -3.529993782
 H 1.494556336 -2.002803601 -2.463283807
 C 3.592464284 -5.393815649 0.598357393
 C 4.463670269 -6.408859711 -0.005543292
 C 5.444701427 -5.803052729 -1.016524198
 C 4.727663861 -4.822851325 -1.953826470
 N 4.078300301 -3.700629175 -1.199383582
 C 3.123918069 -4.219544824 -0.160065878
 H 3.208477679 -5.545634872 1.591662116
 H 5.022201319 -6.978233505 0.770585644
 H 3.829424579 -7.180083687 -0.509512123
 H 5.929571576 -6.606803143 -1.607572760
 H 6.270948178 -5.297970638 -0.480073902
 H 5.453488534 -4.382598443 -2.675700905
 H 3.948876965 -5.351937418 -2.549027564
 H 4.813626096 -3.132631994 -0.740509673
 H 2.879617933 -3.368909450 0.525511144
 H 2.163904950 -4.487626716 -0.681166627
 H 3.397842121 -2.949768870 -1.973234468
 H 3.109132667 -1.307509530 -2.597223901
 O 2.673210503 -2.155524721 -2.670590376
