17
Coordinates from ORCA-job neb
  C   -2.18091304322271     -0.82118574537790     -0.10711869953461
  H   -3.09037530235985     -0.47127583326458     -0.58176029926280
  H   -1.12639879590771     -0.54437667114699     -0.99367632617575
  H   -2.13751353719883     -1.88017907043570      0.11881127789852
  N   -1.87232377094995     -0.05076536116006      1.02427781727404
  O   -1.13879712650197     -0.53253611904378      1.91315137491914
  O   -2.25293400704438      1.13493315270564      1.08557132095332
  C   1.89560551752709      1.27426389333676      0.23591743574729
  O   2.53133153677964      2.14256669741330      0.81602453778664
  O   1.14851417288094      1.51814710277780     -0.80074234806671
  C   1.96535849960825     -0.16909903025522      0.72347530751884
  Cl  3.05651646046298     -1.12309112481237     -0.36674874344687
  H   0.99681800332688     -0.65857886284630      0.71229766882925
  H   2.40593312991389     -0.20533032629269      1.71311147657261
  H   -0.56523381489332      0.02242212638502     -2.55823495308662
  O   -0.18339311725382     -0.30429854538813     -1.73269921339703
  H   0.54780519483287      0.66838371740520     -1.20165763452926
