40

C          1.93298        2.69557        2.30428
C          1.92529        1.30710        2.19421
C          0.75986        0.64019        1.80692
C         -0.40352        1.37453        1.55427
C         -0.39383        2.76185        1.67002
C          0.77586        3.42440        2.03843
H          2.84884        3.21048        2.59567
H          2.83312        0.75230        2.41883
H         -1.31768        0.85609        1.26623
H          0.78641        4.51045        2.11835
C          0.74966       -0.82002        1.68843
C          0.37051       -1.60890        2.89623
H          0.69167       -2.65984        2.82996
H         -0.72186       -1.62291        3.04368
H          0.80897       -1.18683        3.81088
N          0.62128       -1.39212        0.46004
O          0.83401       -0.72934       -0.57920
O          0.39392       -2.61486        0.33466
N          4.12197       -1.19179        5.01571
C          4.43252       -2.55167        5.52955
C          5.10501       -2.49255        6.91020
C          6.36750       -1.62712        6.84442
C          5.98062       -0.22175        6.37370
C          5.31053       -0.29858        4.99395
H          4.95283        0.71147        4.68961
H          6.05771       -0.61672        4.23464
H          6.87003        0.43252        6.32103
H          5.29496        0.24759        7.10436
H          5.35091       -3.51590        7.24945
H          4.40230       -2.07876        7.65787
H          5.07555       -3.12577        4.82762
H          2.67513       -1.14600        1.74010
H          3.77446       -1.27908        4.05505
H          3.46438       -3.09844        5.60222
H          6.86516       -1.58571        7.83023
H          7.10389       -2.07465        6.15005
H         -1.30308        3.33170        1.47289
H          4.15230       -2.12627        1.36744
H          4.28234       -0.58996        1.09954
O          3.95896       -1.23651        1.81215
