17

 C -1.007396979 -0.607046462 0.313696574
 H 0.425081851 -0.796440547 0.166002905
 H -1.087702023 -0.486431474 1.390274145
 H -1.303578139 -1.593095146 -0.030303802
 N -1.338183732 0.471475018 -0.470543113
 O -1.407808781 1.609229454 0.020848984
 O -1.515428907 0.340098585 -1.691642793
 C 3.875338753 0.004354430 -1.843337247
 O 3.279349858 0.330904663 -0.735221815
 O 3.817619922 -1.136358572 -2.294807518
 C 4.621496754 1.107166867 -2.518042490
 H 4.494102378 1.066704534 -3.612444043
 H 5.704709224 1.041153696 -2.330655978
 H 4.295509092 2.103656047 -2.181304450
 H 2.417945702 -0.440109256 -0.339714556
 O 1.521493376 -1.222808119 0.055579322
 H 1.478674172 -1.831310794 -0.691812074
