40
XYZ file generated by gabedit : coordinates in Angstrom
C         -0.6836700000          1.0319800000          0.7383900000
C          0.6905400000          1.0005700000          0.9662500000
C          1.4456200000         -0.1224800000          0.6095100000
C          0.8254500000         -1.2154500000          0.0107000000
C         -0.5554400000         -1.1698600000         -0.2131900000
C         -1.3206500000         -0.0535100000          0.1475300000
H         -1.2619800000          1.9143200000          1.0258500000
H          1.1817600000          1.8630800000          1.4340200000
H          1.4026000000         -2.1024000000         -0.2805100000
H         -2.4018500000         -0.0337400000         -0.0305200000
N         -1.2043300000         -2.3008100000         -0.8269600000
O         -2.4130300000         -2.2656200000         -1.0199600000
O         -0.5336600000         -3.2753400000         -1.1446400000
C          2.9198100000         -0.1204000000          0.9029300000
C          3.4452000000         -1.4755300000          1.3607400000
H          4.4852900000         -1.4157100000          1.7160900000
H          3.4178100000         -2.2408000000          0.5717200000
H          2.8474900000         -1.8607200000          2.2033200000
N          3.6896100000          0.3166700000         -0.3063800000
O          4.9059000000          0.3954100000         -0.2199300000
O          3.0939100000          0.5960900000         -1.3331900000
H          3.1464900000          0.6549900000          1.7136800000
C          1.3340540000         -0.2804490000          6.6003910000
N          2.1166140000          0.5187210000          7.3827210000
C          3.0317740000          1.4859510000          6.7506110000
C          3.1968440000          1.2278210000          5.2369610000
N          1.8888040000          1.0782910000          4.5677510000
C          1.1618840000         -0.0846090000          5.1346510000
H          0.8141840000         -1.1016790000          7.0675810000
H          2.4682840000          0.1138910000          8.2493710000
H          4.0218140000          1.4649610000          7.2557510000
H          2.6139840000          2.5068910000          6.9183310000
H          3.7491940000          2.0676710000          4.7618410000
H          3.7966440000          0.3079010000          5.0631810000
H          1.3356740000          1.9326510000          4.6946710000
H          0.0810640000          0.0099210000          4.8744010000
H          1.5257140000         -0.9981890000          4.5981510000
H          2.9613780000          0.6680630000          3.0381350000
H          3.3906900000          1.0889680000          3.9424470000
O          3.4797190000          1.1270530000          3.1685590000
 
