25
Coordinates from ORCA-job neb_initial_path E   0.000000000000
  C      -0.547431      2.715264      0.174266
  C       0.006896      1.439986      0.131233
  C      -0.808371      0.328637     -0.063262
  C      -2.184541      0.501345     -0.216009
  C      -2.715950      1.780481     -0.180267
  C      -1.915528      2.898814      0.016324
  H       0.089837      3.576817      0.327243
  H       1.073797      1.297952      0.246526
  H      -2.836659     -0.348965     -0.367168
  Cl     -4.445078      1.990442     -0.384729
  H      -2.353882      3.886674      0.043429
  C      -0.209442     -1.057377     -0.060899
  C      -0.692369     -1.933931      1.078115
  H      -0.198599     -2.904201      1.062193
  H      -1.771967     -2.083517      1.050624
  H      -0.437313     -1.433976      2.013318
  N      -0.466634     -1.710605     -1.410272
  O      -0.173578     -1.063116     -2.406457
  O      -0.900101     -2.851459     -1.450934
  H       0.898340     -0.973560     -0.044363
  O       5.186640     -1.462521      0.315530
  H       5.633358     -0.752940      0.789250
  H       4.215726     -1.119593      0.155363
  H       2.761210     -0.047831     -0.776002
  O       2.791639     -0.672820     -0.043051
25
Coordinates from ORCA-job neb_initial_path E   0.000000000000
  C      -0.485316      2.754515     -0.043563
  C       0.002527      1.455670     -0.140599
  C      -0.767731      0.297005     -0.131097
  C      -2.141368      0.499507      0.004552
  C      -2.629769      1.790730      0.107359
  C      -1.851701      2.938456      0.092988
  H       0.162274      3.622184     -0.072886
  H       1.069515      1.393439     -0.266688
  H      -2.824494     -0.337361     -0.010568
  Cl     -4.348097      2.037528      0.282810
  H      -2.257913      3.937242      0.170628
  C      -0.256900     -1.109910     -0.192778
  C      -0.607524     -2.015670      0.968630
  H      -0.059441     -2.955532      0.909242
  H      -1.670298     -2.255883      1.022693
  H      -0.336887     -1.508962      1.895142
  N      -0.495994     -1.730089     -1.526452
  O      -0.103292     -1.197889     -2.567460
  O      -1.030165     -2.828227     -1.669318
  H       0.998222     -0.972865     -0.188374
  O       4.937383     -1.318442      0.846897
  H       5.141938     -0.513008      1.334588
  H       4.016538     -1.155631      0.413279
  H       2.825272     -0.213026     -1.053190
  O       2.713224     -0.613781     -0.185835
25
Coordinates from ORCA-job neb_initial_path E   0.000000000000
  C      -0.459984      2.759213     -0.233438
  C      -0.007161      1.451872     -0.400018
  C      -0.733765      0.271882     -0.210270
  C      -2.043049      0.503706      0.224031
  C      -2.505738      1.798488      0.384458
  C      -1.767998      2.952754      0.177377
  H       0.156135      3.628477     -0.432044
  H       0.953703      1.423319     -0.884959
  H      -2.736592     -0.312016      0.360667
  Cl     -4.148627      2.064768      0.909728
  H      -2.149226      3.956463      0.303931
  C      -0.289248     -1.149644     -0.314811
  C      -0.539819     -2.081556      0.852744
  H       0.051394     -2.991643      0.747140
  H      -1.576220     -2.404831      0.976303
  H      -0.259174     -1.578729      1.778328
  N      -0.498225     -1.744441     -1.636435
  O       0.079317     -1.430641     -2.694750
  O      -1.278676     -2.681036     -1.872122
  H       1.111400     -0.945078     -0.301602
  O       4.604995     -1.151488      1.306845
  H       4.596944     -0.317037      1.788658
  H       3.827801     -1.109702      0.645584
  H       2.929538     -0.373727     -1.194194
  O       2.682275     -0.539370     -0.281152
25
Coordinates from ORCA-job neb_initial_path E   0.000000000000
  C      -0.464625      2.735474     -0.405032
  C      -0.058192      1.427843     -0.660720
  C      -0.716023      0.247122     -0.277144
  C      -1.902563      0.507055      0.424788
  C      -2.342658      1.803151      0.628341
  C      -1.667616      2.950418      0.248556
  H       0.092780      3.601597     -0.742531
  H       0.743342      1.375583     -1.379750
  H      -2.567878     -0.289340      0.720618
  Cl     -3.860912      2.081562      1.448746
  H      -2.027518      3.955183      0.420695
  C      -0.306557     -1.175908     -0.420980
  C      -0.481611     -2.138758      0.732976
  H       0.149625     -3.015734      0.585659
  H      -1.490230     -2.535728      0.881437
  H      -0.201224     -1.649476      1.665692
  N      -0.479870     -1.762682     -1.726261
  O       0.329707     -1.919071     -2.674305
  O      -1.564194     -2.253535     -2.122018
  H       1.233165     -0.877957     -0.382865
  O       4.228864     -0.988473      1.656034
  H       4.035235     -0.165507      2.118783
  H       3.642685     -0.999307      0.830750
  H       3.015231     -0.495957     -1.230156
  O       2.661038     -0.417558     -0.341311
25
Coordinates from ORCA-job neb_initial_path E   0.000000000000
  C      -0.503733      2.705626     -0.541370
  C      -0.139868      1.400221     -0.855337
  C      -0.684415      0.230949     -0.289647
  C      -1.747728      0.501399      0.588118
  C      -2.167244      1.797671      0.823134
  C      -1.577827      2.938179      0.305761
  H      -0.018150      3.566671     -0.985110
  H       0.517046      1.305271     -1.704831
  H      -2.353495     -0.294013      0.993051
  Cl     -3.538107      2.079572      1.871223
  H      -1.918514      3.942642      0.514601
  C      -0.322784     -1.192836     -0.492274
  C      -0.426896     -2.180066      0.642295
  H       0.246185     -3.026549      0.502962
  H      -1.418179     -2.629939      0.755617
  H      -0.157097     -1.693906      1.578610
  N      -0.459775     -1.776886     -1.775830
  O       0.309168     -2.581404     -2.372680
  O      -1.437774     -1.558180     -2.533530
  H       1.349999     -0.815958     -0.509269
  O       3.842051     -0.838312      1.881658
  H       3.480317     -0.054882      2.311831
  H       3.439848     -0.856439      0.962425
  H       3.052463     -0.636433     -1.240888
  O       2.634509     -0.332399     -0.430521
25
Coordinates from ORCA-job neb_initial_path E   0.000000000000
  C      -0.583007      2.663623     -0.695144
  C      -0.258208      1.357912     -1.042811
  C      -0.666803      0.204081     -0.337244
  C      -1.535498      0.492578      0.729424
  C      -1.910539      1.790871      1.015350
  C      -1.457940      2.918607      0.352669
  H      -0.204494      3.513640     -1.250235
  H       0.287884      1.231378     -1.963200
  H      -2.028539     -0.295983      1.274257
  Cl     -3.039327      2.088621      2.318394
  H      -1.760716      3.925353      0.604421
  C      -0.347267     -1.217179     -0.573599
  C      -0.368599     -2.222058      0.547750
  H       0.342620     -3.033992      0.391611
  H      -1.340721     -2.712528      0.667812
  H      -0.092786     -1.743564      1.485424
  N      -0.464818     -1.774712     -1.845877
  O       0.064708     -2.859414     -2.240005
  O      -1.051277     -1.212438     -2.813538
  H       1.458624     -0.767588     -0.652064
  O       3.329408     -0.654610      2.099002
  H       2.775842      0.048695      2.459114
  H       3.140354     -0.654612      1.122017
  H       3.110836     -0.792460     -1.150331
  O       2.600262     -0.294223     -0.503195
25
Coordinates from ORCA-job neb_initial_path E   0.000000000000
  C      -0.687507      2.608283     -0.821796
  C      -0.407352      1.301671     -1.197268
  C      -0.674125      0.173799     -0.387402
  C      -1.284995      0.484819      0.842704
  C      -1.601349      1.787945      1.170996
  C      -1.316584      2.891383      0.384439
  H      -0.436598      3.439142     -1.470268
  H       0.032340      1.147387     -2.167870
  H      -1.609572     -0.293458      1.513237
  Cl     -2.420526      2.107704      2.685512
  H      -1.564272      3.903271      0.672676
  C      -0.374821     -1.235597     -0.655110
  C      -0.309967     -2.259614      0.444459
  H       0.433957     -3.028107      0.231041
  H      -1.259868     -2.785646      0.592061
  H      -0.018812     -1.798061      1.385034
  N      -0.444154     -1.753057     -1.923090
  O      -0.142747     -2.959047     -2.207414
  O      -0.748903     -1.081532     -2.958144
  H       1.565272     -0.673314     -0.728426
  O       2.756810     -0.462115      2.267195
  H       2.025543      0.118062      2.513004
  H       2.754188     -0.451781      1.280684
  H       3.156219     -0.905360     -0.957601
  O       2.577823     -0.276777     -0.508655
25
Coordinates from ORCA-job neb_initial_path E   0.000000000000
  C      -0.792198      2.537823     -0.909538
  C      -0.562862      1.231656     -1.315441
  C      -0.679306      0.149532     -0.412360
  C      -1.048612      0.476118      0.913636
  C      -1.267900      1.788831      1.287366
  C      -1.148761      2.847767      0.399218
  H      -0.684967      3.338637     -1.631337
  H      -0.288387      1.033306     -2.336620
  H      -1.179904     -0.295613      1.655263
  Cl     -1.723393      2.122004      2.954932
  H      -1.326786      3.865746      0.715106
  C      -0.410382     -1.247131     -0.729488
  C      -0.237861     -2.277477      0.351293
  H       0.537365     -2.991613      0.070217
  H      -1.148874     -2.860187      0.529566
  H       0.059153     -1.814699      1.289164
  N      -0.406246     -1.727007     -1.993972
  O      -0.260366     -2.986515     -2.187747
  O      -0.553159     -0.975135     -3.019069
  H       1.681148     -0.542136     -0.737455
  O       2.144497     -0.277428      2.377212
  H       1.270460      0.119797      2.474745
  H       2.305663     -0.280664      1.412598
  H       3.158740     -0.967463     -0.727917
  O       2.562935     -0.268148     -0.429373
