25
Coordinates from ORCA-job neb_NEB-CI_converged
  C   -0.59838148898286      2.67498176624771     -0.58187011747210
  C   -0.12643702640956      1.39459396242518     -0.83011172008846
  C   -0.74443051205464      0.28066518077352     -0.25971208945394
  C   -1.86007556173111      0.46843974958143      0.55454655338934
  C   -2.31538238303926      1.75819356121165      0.79899466002181
  C   -1.69776780259771      2.87114874676735      0.24840071995549
  H   -0.09900490543733      3.52998361340877     -1.01901198463196
  H   0.75226374771418      1.24435843037784     -1.44257073517025
  H   -2.36294162018492     -0.36992478606505      1.01513776031144
  Cl  -3.69785715764040      1.98684710502952      1.85684073164574
  H   -2.05678672173722      3.86684896520315      0.47023010768489
  C   -0.10661032779570     -1.06739767994373     -0.46107619499441
  C   -0.34943371537424     -2.10252564215513      0.62929896662078
  H   0.28048390793649     -2.97156385123473      0.45889873826859
  H   -1.38934479335153     -2.43015536589603      0.68780778963538
  H   -0.07009848042526     -1.66448242908082      1.58739590372842
  N   -0.44694250603903     -1.66592891958452     -1.80830885466813
  O   0.04412626787778     -2.75943019827664     -2.06847914566353
  O   -1.13882543077433     -1.03773025660297     -2.59976553985373
  H   1.00758556062485     -0.90130436721416     -0.53874551313213
  O   3.93414811819221     -0.94629584526212      1.80012941073557
  H   3.76889319386127     -0.13405205095218      2.29133500522053
  H   3.48713692488320     -0.79837544428119      0.88319061870760
  H   3.08462081669877     -0.69189871479705     -1.27126886433188
  O   2.70106189578637     -0.53499552967980     -0.40128620646506
