29

C          0.45718        1.28751        0.33156
C          0.90181        0.68720       -0.85002
C          0.49433       -0.61755       -1.17226
C         -0.35586       -1.29366       -0.28389
C         -0.77856       -0.67281        0.89404
C         -0.38577        0.62688        1.22469
H          1.57826        1.23417       -1.52270
H         -0.69478       -2.31332       -0.51759
H         -0.72501        1.10694        2.15401
N         -1.64892       -1.38989        1.79987
O         -2.07910       -0.81399        2.79014
O         -1.93391       -2.55468        1.55629
C          0.95310       -1.28658       -2.36920
H          4.16147       -1.23585       -2.34138
C          1.13122       -2.76663       -2.33398
H          1.79298       -3.13409       -3.13226
H          0.17365       -3.29663       -2.45176
H          1.57491       -3.09709       -1.38178
N          1.21255       -0.62106       -3.50314
O          1.63967       -1.21033       -4.52969
O          1.02680        0.62138       -3.59829
O          8.02516       -0.71000       -2.93319
H          8.48078       -1.08831       -2.17193
N          0.89026        2.63351        0.64314
O          0.51483        3.15089        1.68587
O          1.61904        3.22074       -0.14444
H          5.55865       -1.33444       -1.39605
H          7.09632       -0.89626       -2.77869
O          5.44980       -1.23569       -2.34554
