40
Coordinates from ORCA-job /home/rudenko/mop_saddle_orca_4_serv/for_orca/m-o2nc6h4chno2ch3_piperazine/orca/orca_end/end
  C   1.73065617779804      0.03184923979446     -1.39632319491423
  C   1.32495981241510     -1.22409959923214     -1.82605170647196
  C   0.06923249093413     -1.75768939729983     -1.46868630943390
  C   -0.75231411589597     -0.96041070431739     -0.65605456415163
  C   -0.32493225030651      0.29277357845439     -0.24581611970919
  C   0.91116666748293      0.81793043834044     -0.59855656217699
  H   2.70619270668889      0.40131801731178     -1.68446573730416
  H   1.98712278331416     -1.80788957469664     -2.44203831654838
  H   -1.72908452933591     -1.29990024264506     -0.35286230753575
  H   1.21399446476000      1.79610048934780     -0.25944055393936
  N   -1.22158948502067      1.09700914597990      0.58963295825339
  O   -0.83022575166269      2.19341563921827      0.97348106250615
  O   -2.32501682669307      0.64280573966270      0.87033015437704
  C   -0.40589201395446     -3.08906667136773     -1.84147791852492
  C   -1.42062438564976     -3.81220285549255     -1.00574953031565
  H   -1.16694372644716     -4.87013812881564     -0.93875912821853
  H   -2.42737082345301     -3.75274380295141     -1.43338869214138
  H   -1.45417562843292     -3.40095946457586      0.00118686497888
  N   -0.04039027333304     -3.68741361711576     -2.97653736490201
  O   -0.51009019211339     -4.83413420213146     -3.29211531129361
  O   0.79810665600796     -3.13292052936434     -3.81074618621045
  H   1.48473520573405     -4.18781776141021     -0.62143672031844
  C   4.39684252534705     -4.02749772469808     -5.22924386282854
  N   4.10783741904181     -5.22825427064465     -5.85844888919245
  C   2.90237801402150     -5.93400694525635     -5.42885562711193
  C   2.85559479393838     -6.01637902085497     -3.91492099728816
  N   2.98568686343744     -4.64917590492241     -3.33520459446177
  C   4.26854994725270     -3.99882238630061     -3.74838687398651
  H   5.14536388478938     -3.40310341498204     -5.69555996404032
  H   4.23232211059395     -5.21789768718379     -6.86084015521944
  H   2.91067560811447     -6.94244757980465     -5.84034003126945
  H   1.99937667090335     -5.42444019798685     -5.78775023130742
  H   1.90829993063930     -6.43103275350345     -3.57833426577321
  H   3.67692727377231     -6.61732456497308     -3.52416517902076
  H   2.16415580652243     -4.05283467548498     -3.63778367668745
  H   4.26861341098444     -2.97920019960510     -3.36766052023444
  H   5.06590064462527     -4.55716603792450     -3.23803359941315
  H   2.12882742795332     -5.51655940290622     -0.20462500154693
  H   2.91864700456422     -4.69803644288538     -2.30464454760067
  O   2.34093042066179     -4.63369465677619     -0.53589423902201
