10
Properties=species:S:1:pos:R:3 pbc="F F F"
C        0.43894599      -0.77639832       0.55622185
H        1.00103145      -1.42925313      -0.14513711
H        0.92667888       0.22334185       0.53474678
H        0.56277581      -1.18154808       1.57869132
N       -0.96542738      -0.66256387       0.18566748
O       -1.79788890      -0.48800953       1.06559165
O       -1.28184476      -0.73681258      -0.99344884
H        3.76887115      -1.65235434       1.37166354
O        2.95725465      -1.18060492       1.58833817
H        3.17575147      -0.25345875       1.42924301
