40
Properties=species:S:1:pos:R:3 pbc="F F F"
C        2.05046040       2.66417330      -1.26529028
C        2.24589651       1.41125107      -0.69436084
C        1.37648083       0.34148145      -0.96847376
C        0.28673990       0.56883340      -1.82407220
C        0.13591808       1.82300407      -2.39110013
C        0.98482030       2.88736447      -2.13917669
H        2.74009652       3.47986770      -1.03739780
H        3.09607460       1.26417444      -0.02531665
H       -0.41924658      -0.23508279      -2.04466892
Cl      -1.17618931       2.05747475      -3.48000151
H        0.84150291       3.86404782      -2.59934759
C        1.61811800      -0.96265470      -0.37616200
C        2.08091255      -1.04951754       1.04185991
H        2.61566267      -1.98956721       1.24907585
H        1.23491639      -0.99724919       1.74459070
H        2.76841421      -0.23380879       1.30659290
N        1.17222724      -2.10188276      -0.96695429
O        1.21952845      -3.20193635      -0.37085127
O        0.79886385      -2.10876823      -2.16298965
N        4.16346385      -0.45797538      -3.94036985
C        4.01923463      -1.70197771      -4.78952378
C        3.62220910      -1.31936212      -6.21576194
C        2.31333185      -0.52289796      -6.21919140
C        2.43944917       0.71131167      -5.32121755
C        2.85420712       0.29773262      -3.90995020
H        3.28431730      -1.23294831      -1.25418004
H        4.98829121      -2.25298972      -4.77673106
H        3.25715390      -2.37270481      -4.32916539
H        3.51942899      -2.23619505      -6.83196577
H        4.42966687      -0.73672854      -6.70315278
H        2.05645379      -0.21739794      -7.25218692
H        1.47165585      -1.16061437      -5.88181486
H        1.47836688       1.26340124      -5.28221237
H        3.16557138       1.43164956      -5.74864187
H        2.97689317       1.19175908      -3.25460062
H        2.07013070      -0.35365724      -3.44784172
H        4.91614816       0.15067708      -4.32591070
H        4.60618246      -0.50859333      -0.69568821
H        4.45082049      -0.72143457      -2.94634620
O        4.39968358      -1.21281445      -1.31476358
