39
Coordinates from ORCA-job /home/rudenko/mop_saddle_orca_4_serv/for_orca/c6h5chno2ch3_piperazine/orca/orca_start/start
  C   -0.63901199241088      2.85147915983486      0.27207846108369
  C   0.44729962096301      2.28057689752499      0.92721097520638
  C   0.28364102785821      1.11882314735010      1.67907668448609
  C   -0.97663674880688      0.52575445242400      1.76169852461797
  C   -2.05948909447308      1.09151007010144      1.09972837649928
  C   -1.89338129371403      2.25654708541198      0.35529474291861
  H   -0.50431421241209      3.75821130444806     -0.30409046161553
  H   1.42685033576022      2.73740777690726      0.86464129498854
  H   -1.11458486905919     -0.37982359718175      2.33846822509773
  H   -2.73933560822413      2.69773469214688     -0.15654959909522
  C   1.47614254637986      0.52942069808816      2.39766149999128
  C   1.27206193887023      0.27766553741160      3.87760150117555
  H   2.16513931328884     -0.16194540395616      4.31982297380544
  H   0.41904715681334     -0.37107152498074      4.06483025114650
  H   1.08823122713729      1.24073090376115      4.35511262761654
  N   1.84218842177170     -0.77482813556380      1.67317691960945
  O   2.49513907691887     -0.67052674738267      0.64645574667467
  O   1.45169325683698     -1.83501553470696      2.12977644424923
  N   4.97039618847270      0.84551020919523      3.92145535708056
  C   5.28798346917299     -0.46381792297093      3.35418243173314
  C   5.65864389879521     -1.42528528814534      4.47322507458268
  N   6.79573141620167     -0.88366835158129      5.22198010158493
  C   6.47831194151766      0.42947454016153      5.78962113172971
  C   6.10575130154079      1.38693680336026      4.66694523716903
  H   5.82860375931462      2.35757593129555      5.08286037168927
  H   6.98965821431268      1.53290072039844      4.02407512059928
  H   7.35195691620036      0.80399503806386      6.32642746207987
  H   5.63733482176073      0.37926809456829      6.50001742239461
  H   5.93730540918799     -2.39499405570202      4.05632512676187
  H   4.77541885469504     -1.57116399439447      5.11575183261018
  H   6.12786615053827     -0.41340136632506      2.64153038838065
  H   2.34577373211213      1.15703200386098      2.21996828669981
  H   4.69335633042141      1.49015444412686      3.18782979832429
  H   4.41813250997001     -0.84258807015299      2.81698793889378
  H   7.05269553068972     -1.52401211927071      5.96425919151619
  H   4.45250479561428      3.11896103882582      1.00252268918175
  H   3.58320497955707      3.72534979106588      2.10809698763335
  O   3.92169727411019      2.88469529173601      1.77444167572577
  H   -3.03366768768433      0.62388636024559      1.16637114517251
