25
Coordinates from ORCA-job neb_initial_path E   0.000000000000
  C      -1.473856      0.957660      0.161837
  H      -1.217222      0.800860     -0.878053
  N      -3.166349     -0.879946      0.352029
  O      -3.744617     -0.336183     -0.570501
  O      -3.525600     -1.927086      0.867539
  H      -1.579324      2.324740      1.763230
  C      -1.920332     -0.236117      0.927460
  H      -1.184073     -1.037281      0.932751
  H      -2.181003     -0.002170      1.959325
  C      -1.334329      2.152547      0.721016
  H      -0.960730      3.000447      0.160670
  C       1.780717     -0.920225      0.505158
  C       2.722691      0.012051      0.918311
  C       3.052046      1.051702      0.056525
  C       2.428534      1.118744     -1.182119
  C       1.495422      0.142727     -1.508330
  N       1.175004     -0.857744     -0.683944
  H       1.495888     -1.742165      1.152130
  H       3.184513     -0.077028      1.892316
  H       2.651760      1.909706     -1.885306
  H       0.979569      0.164240     -2.461527
  H       3.781222      1.797930      0.345657
  H      -1.197887     -3.097535     -0.859564
  H      -0.234334     -1.916974     -1.175471
  O      -1.027710     -2.402899     -1.511136
25
Coordinates from ORCA-job neb_initial_path E   0.000000000000
  C      -1.688178      0.977856      0.195376
  H      -1.613269      0.893033     -0.881037
  N      -3.273537     -0.954925      0.457903
  O      -3.928663     -0.448112     -0.443848
  O      -3.520497     -2.044830      0.972250
  H      -1.484712      2.267310      1.816912
  C      -2.060602     -0.237591      0.935472
  H      -1.207062     -1.099437      0.749348
  H      -2.125374     -0.108932      2.010790
  C      -1.419386      2.155782      0.741549
  H      -1.136291      3.026814      0.165212
  C       1.749855     -0.804918      0.531775
  C       2.739996      0.066069      0.950904
  C       3.196406      1.003257      0.034618
  C       2.632095      1.009724     -1.231555
  C       1.636078      0.107217     -1.567241
  N       1.208930     -0.800657     -0.688691
  H       1.383655     -1.560143      1.215473
  H       3.150889      0.020459      1.949783
  H       2.959811      1.721731     -1.975312
  H       1.166978      0.090227     -2.543367
  H       3.974416      1.698034      0.322872
  H      -1.195417     -2.986805     -0.973768
  H      -0.104715     -1.773331     -1.205892
  O      -1.041405     -2.217832     -1.539525
25
Coordinates from ORCA-job neb_initial_path E   0.000000000000
  C      -1.902766      0.994404      0.239628
  H      -2.024363      0.975678     -0.836596
  N      -3.363779     -1.027949      0.562801
  O      -4.093994     -0.565586     -0.316185
  O      -3.503817     -2.151424      1.067193
  H      -1.360072      2.203002      1.828076
  C      -2.193804     -0.242406      0.959984
  H      -1.254439     -1.132246      0.530632
  H      -2.047598     -0.218604      2.031462
  C      -1.496629      2.148741      0.755502
  H      -1.312601      3.044339      0.177202
  C       1.714882     -0.682597      0.552291
  C       2.752737      0.124794      0.974974
  C       3.330733      0.946698      0.018764
  C       2.825922      0.896948     -1.270696
  C       1.774925      0.067251     -1.616441
  N       1.239041     -0.732572     -0.693651
  H       1.267113     -1.359936      1.266062
  H       3.112949      0.123295      1.993910
  H       3.251615      1.519697     -2.043389
  H       1.349641      0.013276     -2.610626
  H       4.151977      1.589144      0.307433
  H      -1.189302     -2.870421     -1.087959
  H       0.020390     -1.626418     -1.233045
  O      -1.048761     -2.037109     -1.557326
25
Coordinates from ORCA-job neb_initial_path E   0.000000000000
  C      -2.113119      1.006450      0.301240
  H      -2.435494      1.048251     -0.733199
  N      -3.432555     -1.099246      0.663278
  O      -4.239089     -0.687219     -0.186276
  O      -3.472913     -2.247022      1.152769
  H      -1.225870      2.132237      1.787403
  C      -2.310416     -0.255709      0.994450
  H      -1.324674     -1.131078      0.284891
  H      -1.962635     -0.326813      2.013934
  C      -1.571038      2.131765      0.761475
  H      -1.488366      3.052085      0.199054
  C       1.680401     -0.554867      0.563104
  C       2.763517      0.185761      0.989321
  C       3.454668      0.882492      0.009313
  C       3.009161      0.778413     -1.298529
  C       1.910662      0.021722     -1.655619
  N       1.267712     -0.655051     -0.701863
  H       1.144617     -1.141732      1.293970
  H       3.074847      0.230424      2.023035
  H       3.524851      1.303743     -2.088000
  H       1.527296     -0.070699     -2.663717
  H       4.313954      1.471563      0.300358
  H      -1.181987     -2.744375     -1.200957
  H       0.137781     -1.471114     -1.240481
  O      -1.051312     -1.859978     -1.568956
25
Coordinates from ORCA-job neb_initial_path E   0.000000000000
  C      -2.311356      1.010995      0.380185
  H      -2.828224      1.106668     -0.569070
  N      -3.477570     -1.169188      0.753698
  O      -4.363023     -0.809191     -0.053573
  O      -3.428324     -2.331898      1.228043
  H      -1.106539      2.057394      1.695929
  C      -2.404724     -0.279883      1.027886
  H      -1.417294     -1.096278      0.020636
  H      -1.883549     -0.430272      1.959359
  C      -1.649483      2.105520      0.760837
  H      -1.662776      3.049103      0.232308
  C       1.651338     -0.422664      0.562953
  C       2.775132      0.248874      0.993668
  C       3.569250      0.811518      0.005317
  C       3.181865      0.652479     -1.315666
  C       2.042061     -0.030320     -1.684715
  N       1.299217     -0.570060     -0.714568
  H       1.025571     -0.908750      1.294033
  H       3.039858      0.342009      2.036823
  H       3.778940      1.073373     -2.109954
  H       1.696086     -0.165975     -2.701129
  H       4.462103      1.345412      0.301090
  H      -1.174334     -2.606280     -1.309613
  H       0.239184     -1.297209     -1.215460
  O      -1.053408     -1.685377     -1.579017
25
Coordinates from ORCA-job neb_initial_path E   0.000000000000
  C      -2.491649      1.003397      0.467905
  H      -3.184597      1.141660     -0.355608
  N      -3.500421     -1.237771      0.828506
  O      -4.467171     -0.927265      0.082666
  O      -3.375155     -2.406596      1.293405
  H      -1.022887      1.981723      1.565475
  C      -2.477369     -0.313882      1.050233
  H      -1.519921     -1.039543     -0.247237
  H      -1.815396     -0.526467      1.872483
  C      -1.738253      2.069881      0.758135
  H      -1.836510      3.033650      0.277643
  C       1.629966     -0.284997      0.551683
  C       2.789996      0.314883      0.987149
  C       3.676138      0.733641      0.005358
  C       3.345046      0.516886     -1.323354
  C       2.167674     -0.089587     -1.702607
  N       1.336287     -0.481732     -0.732718
  H       0.918582     -0.657736      1.268943
  H       3.010141      0.458944      2.034545
  H       4.015014      0.826547     -2.110380
  H       1.852805     -0.273380     -2.720819
  H       4.598969      1.208998      0.308345
  H      -1.167931     -2.452567     -1.413412
  H       0.317030     -1.092437     -1.164913
  O      -1.060390     -1.506248     -1.581427
25
Coordinates from ORCA-job neb_initial_path E   0.000000000000
  C      -2.657107      0.982289      0.552293
  H      -3.496589      1.148440     -0.114043
  N      -3.510906     -1.302514      0.890413
  O      -4.557030     -1.040188      0.224563
  O      -3.320770     -2.471526      1.353094
  H      -0.983284      1.907609      1.412451
  C      -2.537699     -0.351832      1.062095
  H      -1.605084     -0.978166     -0.498600
  H      -1.757023     -0.611093      1.757314
  C      -1.838980      2.024502      0.759654
  H      -2.010244      3.003847      0.334622
  C       1.613193     -0.141493      0.530101
  C       2.807925      0.382651      0.968147
  C       3.775416      0.648460      0.008968
  C       3.500231      0.371413     -1.322826
  C       2.286109     -0.153479     -1.707311
  N       1.376027     -0.394215     -0.757874
  H       0.823507     -0.386151      1.220090
  H       2.985882      0.580086      2.014687
  H       4.234410      0.563706     -2.090029
  H       2.000247     -0.386338     -2.723026
  H       4.725286      1.060821      0.320692
  H      -1.164816     -2.277052     -1.518140
  H       0.384917     -0.864246     -1.117081
  O      -1.073619     -1.315532     -1.560255
25
Coordinates from ORCA-job neb_initial_path E   0.000000000000
  C      -2.818687      0.951485      0.629520
  H      -3.766859      1.131941      0.135332
  N      -3.523108     -1.360287      0.952129
  O      -4.641346     -1.150456      0.377509
  O      -3.270032     -2.527246      1.413033
  H      -0.986724      1.834917      1.253014
  C      -2.596283     -0.388966      1.070192
  H      -1.656947     -0.917863     -0.732020
  H      -1.713770     -0.677010      1.620692
  C      -1.947150      1.968606      0.768307
  H      -2.182086      2.958296      0.400913
  C       1.596049      0.008651      0.500786
  C       2.828452      0.449777      0.935324
  C       3.866363      0.557768      0.015709
  C       3.650316      0.218867     -1.316032
  C       2.398407     -0.215704     -1.698701
  N       1.416831     -0.305132     -0.789948
  H       0.738155     -0.105141      1.146046
  H       2.967049      0.702118      1.976231
  H       4.438506      0.289999     -2.051029
  H       2.145573     -0.496540     -2.710385
  H       4.840681      0.902158      0.336001
  H      -1.161975     -2.074826     -1.631437
  H       0.471232     -0.636550     -1.094351
  O      -1.092646     -1.118862     -1.506835
