25
Coordinates from ORCA-job neb_NEB-CI_converged
  C   -2.37412857009760      0.99050424237068      0.33292244686610
  H   -2.99069447352820      1.12617960609968     -0.54822740051374
  N   -3.44638165361549     -1.18770828480856      0.73109606282701
  O   -4.38041961533207     -0.85933407455416     -0.02267188365316
  O   -3.45809115403677     -2.28059109687047      1.33314837975744
  H   -1.04536444421895      1.96518665374633      1.67552413502212
  C   -2.28946333635132     -0.38143411054746      0.82740790476989
  H   -1.55325097871700     -1.04056067314220     -0.20720100189128
  H   -1.76915124562863     -0.56976828006646      1.76158010318460
  C   -1.68346866842055      2.03430467270949      0.80175942248883
  H   -1.74938384019165      2.99685038684310      0.30990730577602
  C   1.61881219699527     -0.43662670062614      0.55790296009873
  C   2.75544361489550      0.24120776828423      0.96085568179486
  C   3.58238234764122      0.78380650865159     -0.01640774604852
  C   3.24792595706379      0.63635456400330     -1.35926812634738
  C   2.09060652327451     -0.05306300104473     -1.68099633954234
  N   1.30604207663169     -0.57520151987231     -0.73432898243052
  H   0.92660121456932     -0.87839752005280      1.26190638804720
  H   2.97657719487176      0.34356172261185      2.01508177515114
  H   3.86470247116260      1.05328975264608     -2.14368833877929
  H   1.76701616591399     -0.19241116283534     -2.70505077787881
  H   4.47810682049081      1.31987452272501      0.26686646454965
  H   -1.05970275405060     -2.42903672695054     -1.23536365365625
  H   0.14913616665625     -1.13743440119105     -1.00838950639675
  O   -0.96385201597787     -1.46955284812913     -1.17436527319554
