10
Coordinates from ORCA-job neb_NEB-CI_converged
  C   -0.43394637310301      0.25539803467285     -0.28601155883127
  H   0.13005936452176     -0.18475204193877     -1.10083427277318
  H   -0.29984496769922      1.33505498911455     -0.25498287912863
  H   -0.18831305098763     -0.17974504951034      0.67742012251477
  N   -1.88361615303393      0.02185279222470     -0.54155957376341
  O   -2.64301188079792      0.08347460872096      0.41435637468433
  O   -2.23678434241084     -0.19243708968888     -1.69006515034785
  H   2.44531288136647     -1.09419249133642      0.60373663176608
  O   2.47868669261521     -0.44216289351032      1.31486847220874
  H   2.63145782952912      0.39750914125166      0.86307183367042
