17

C         -1.35548       -0.51118        0.38379
H          0.61519       -1.18922       -0.08253
H         -1.06953       -0.32148        1.40109
H         -1.57788       -1.53300        0.13688
N         -1.52063        0.46561       -0.48579
O         -1.31414        1.67124       -0.17508
O         -1.88350        0.24034       -1.67542
C          3.78454        0.06090       -1.97529
O          2.96814        0.64203       -1.08343
O          3.65587       -1.11721       -2.24753
C          4.78337        1.00293       -2.51863
H          4.87074        0.92275       -3.61334
H          5.78820        0.79139       -2.10673
H          4.55897        2.05721       -2.27877
H          2.31259       -0.03074       -0.63726
O          1.60476       -1.28756       -0.04915
H          1.79745       -1.92789       -0.75685
